2024_89_CemigReconfigurationCases/1_AlimsCemig/IIIU12/IIIU12AnualA.dss
clear
new circuit.alimIIIU12 bus1=BMT163873522.1.2.3,basekv=13.800000000,pu=1.040000000

Redirect ..\0PermRes\NovasCurvasTxt\CurvasDeCargaDU.dss
Redirect ..\0PermRes\Condutores.dss
Redirect IIIU12SegmentosMT.dss
Redirect IIIU12ChavesMT.dss
Redirect IIIU12Reguladores.dss
Redirect IIIU12Transformadores.dss
Redirect IIIU12SegmentosBT.dss
Redirect IIIU12Ramais.dss
Redirect IIIU12CargaMT_Dez.dss
Redirect IIIU12CargaBT_Dez.dss
! Redirect IIIU12CapacitorMTDez.dss

new energymeter.carga element=line.TR12424244,terminal=1

Set voltagebases=[13.800000000 0.24 0.22]
CalcVoltageBases

! Solve mode=daily,hour=0,number=24,stepsize=1h

! BusCoords IIIU12CoordMT.csv