2024_89_CemigReconfigurationCases/1_AlimsCemig/IIIU12/IIIU12SegmentosMT.dss
new line.TR10158940 bus1=BMT164138867.2,bus2=BMT164138868.2,Phases=1,Linecode=CAB202_3_1,Length=0.052141000,Units=km
new line.TR10158947 bus1=BMT164138867.1.2.3,bus2=BMT164138869.1.2.3,Phases=3,Linecode=CAB202_3_3,Length=0.172680000,Units=km
new line.TR10162202 bus1=BMT163875512.3,bus2=BMT163875513.3,Phases=1,Linecode=CAB103_3_1,Length=0.060737000,Units=km
new line.TR10162209 bus1=BMT163875512.1.2.3,bus2=BMT6292715B.1.2.3,Phases=3,Linecode=CAB202_3_3,Length=0.105787000,Units=km
new line.TR10162216 bus1=BMT6291238B.1.2.3,bus2=BMT163875512.1.2.3,Phases=3,Linecode=CAB202_3_3,Length=0.112185000,Units=km
new line.TR10162671 bus1=BMT6292715B.1.2.3,bus2=BMT163875514.1.2.3,Phases=3,Linecode=CAB202_3_3,Length=0.114984000,Units=km
new line.TR10162678 bus1=BMT6292743B.1.2.3,bus2=BMT6291238B.1.2.3,Phases=3,Linecode=CAB202_3_3,Length=0.104374000,Units=km
new line.TR10180087 bus1=BMT6325132B.2,bus2=BMT172329669.2,Phases=1,Linecode=CAB202_3_1,Length=0.120783000,Units=km
new line.TR10201605 bus1=BMT6362099B.2,bus2=BMT163874955.2,Phases=1,Linecode=CAB202_3_1,Length=0.059290000,Units=km
new line.TR10204118 bus1=BMT6367006B.3,bus2=BMT6367048B.3,Phases=1,Linecode=CAB202_3_1,Length=0.096151000,Units=km
new line.TR10204132 bus1=BMT6367048B.3,bus2=BMT6367055B.3,Phases=1,Linecode=CAB202_3_1,Length=0.084357000,Units=km
new line.TR10204139 bus1=BMT6367055B.3,bus2=BMT163874085.3,Phases=1,Linecode=CAB202_3_1,Length=0.143550000,Units=km
new line.TR10204146 bus1=BMT163874085.3,bus2=BMT163874086.3,Phases=1,Linecode=CAB202_3_1,Length=0.083464000,Units=km
new line.TR10206239 bus1=BMT6370240B.2,bus2=BMT163874075.2,Phases=1,Linecode=CAB202_3_1,Length=0.069408000,Units=km
new line.TR10206855 bus1=BMT166137068.2,bus2=BMT6371199B.2,Phases=1,Linecode=CAB202_3_1,Length=0.060622000,Units=km
new line.TR10206862 bus1=BMT6371199B.2,bus2=BMT6371206B.2,Phases=1,Linecode=CAB202_3_1,Length=0.051532000,Units=km
new line.TR10226700 bus1=BMT6401901B.2,bus2=BMT163875367.2,Phases=1,Linecode=CAB202_3_1,Length=0.133964000,Units=km
new line.TR10247714 bus1=BMT6437545B.1.2.3,bus2=BMT6437552B.1.2.3,Phases=3,Linecode=CAB202_3_3,Length=0.237728000,Units=km
new line.TR10247721 bus1=BMT6437552B.1.2.3,bus2=BMT168937422.1.2.3,Phases=3,Linecode=CAB202_3_3,Length=0.087641000,Units=km
new line.TR10269099 bus1=BMT172171178.1.2.3,bus2=BMT172171179.1.2.3,Phases=3,Linecode=CAB202_3_3,Length=0.033010000,Units=km
new line.TR10269106 bus1=BMT172171178.1.2.3,bus2=BMT172171180.1.2.3,Phases=3,Linecode=CAB103_3_3,Length=0.068054000,Units=km
new line.TR10275854 bus1=BMT6479951B.1,bus2=BMT163873999.1,Phases=1,Linecode=CAB202_3_1,Length=0.094989000,Units=km
new line.TR10303259 bus1=BMT163875655.1.2.3,bus2=BMT163875656.1.2.3,Phases=3,Linecode=CAB202_3_3,Length=0.024592000,Units=km
new line.TR10303266 bus1=BMT163875655.1.2.3,bus2=BMT163875657.1.2.3,Phases=3,Linecode=CAB103_3_3,Length=0.067455000,Units=km
new line.TR10311974 bus1=BMT6540291B.1.2.3,bus2=BMT6540347B.1.2.3,Phases=3,Linecode=CAB202_3_3,Length=0.151898000,Units=km
new line.TR10311981 bus1=BMT171594852.1.2.3,bus2=BMT171594853.1.2.3,Phases=3,Linecode=CAB202_3_3,Length=0.233424000,Units=km
new line.TR10311988 bus1=BMT171594852.1,bus2=BMT6540655B.1,Phases=1,Linecode=CAB202_3_1,Length=0.253224000,Units=km
new line.TR10312009 bus1=BMT6540340B.1.2.3,bus2=BMT6540291B.1.2.3,Phases=3,Linecode=CAB202_3_3,Length=0.075120000,Units=km
new line.TR10312016 bus1=BMT6540347B.1.2.3,bus2=BMT171594852.1.2.3,Phases=3,Linecode=CAB202_3_3,Length=0.181046000,Units=km
new line.TR10312219 bus1=BMT6540655B.1,bus2=BMT6540753B.1,Phases=1,Linecode=CAB202_3_1,Length=0.152174000,Units=km
new line.TR10312275 bus1=BMT6540753B.1,bus2=BMT171594854.1,Phases=1,Linecode=CAB202_3_1,Length=0.123060000,Units=km
new line.TR10321893 bus1=BMT6554816B.1.2.3,bus2=BMT3388717B.1.2.3,Phases=3,Linecode=CAB202_3_3,Length=0.103137000,Units=km
new line.TR10355332 bus1=BMT164155849.1.2.3,bus2=BMT164155850.1.2.3,Phases=3,Linecode=CAB202_3_3,Length=0.090805000,Units=km
new line.TR10368870 bus1=BMT163875633.2,bus2=BMT163875634.2,Phases=1,Linecode=CAB202_3_1,Length=0.152237000,Units=km
new line.TR10368877 bus1=BMT163875634.2,bus2=BMT163875635.2,Phases=1,Linecode=CAB202_3_1,Length=0.027014000,Units=km
new line.TR10368884 bus1=BMT163875635.2,bus2=BMT6623675B.2,Phases=1,Linecode=CAB202_3_1,Length=0.113204000,Units=km
new line.TR10368891 bus1=BMT6623675B.2,bus2=BMT6623682B.2,Phases=1,Linecode=CAB202_3_1,Length=0.117697000,Units=km
new line.TR10368898 bus1=BMT6623682B.2,bus2=BMT6623689B.2,Phases=1,Linecode=CAB202_3_1,Length=0.106234000,Units=km
new line.TR10368905 bus1=BMT6623689B.2,bus2=BMT6623696B.2,Phases=1,Linecode=CAB202_3_1,Length=0.081378000,Units=km
new line.TR10368912 bus1=BMT6623696B.2,bus2=BMT163875637.2,Phases=1,Linecode=CAB202_3_1,Length=0.096584000,Units=km
new line.TR10368919 bus1=BMT163875634.2,bus2=BMT163875636.2,Phases=1,Linecode=CAB103_3_1,Length=0.024996000,Units=km
new line.TR10401147 bus1=BMT172827515.1.2.3,bus2=BMT6658150B.1.2.3,Phases=3,Linecode=CAB203_3_3,Length=0.078987000,Units=km
new line.TR10401161 bus1=BMT6658150B.1.2.3,bus2=BMT6658206B.1.2.3,Phases=3,Linecode=CAB203_3_3,Length=0.189968000,Units=km
new line.TR10401168 bus1=BMT6658206B.1.2.3,bus2=BMT6658255B.1.2.3,Phases=3,Linecode=CAB203_3_3,Length=0.047846000,Units=km
new line.TR10401175 bus1=BMT6658255B.1.2.3,bus2=BMT172827518.1.2.3,Phases=3,Linecode=CAB203_3_3,Length=0.286874000,Units=km
new line.TR10401182 bus1=BMT172827518.1,bus2=BMT6658360B.1,Phases=1,Linecode=CAB202_3_1,Length=0.189588000,Units=km
new line.TR10401189 bus1=BMT6658360B.1,bus2=BMT172827521.1,Phases=1,Linecode=CAB202_3_1,Length=0.157786000,Units=km
new line.TR10409932 bus1=BMT163875156.1,bus2=BMT163875159.1,Phases=1,Linecode=CAB103_3_1,Length=0.028155000,Units=km
new line.TR10442069 bus1=BMT163875420.1,bus2=BMT6701963B.1,Phases=1,Linecode=CAB202_3_1,Length=0.138381000,Units=km
new line.TR10442076 bus1=BMT6701963B.1,bus2=BMT6701970B.1,Phases=1,Linecode=CAB202_3_1,Length=0.153982000,Units=km
new line.TR10442083 bus1=BMT6701970B.1,bus2=BMT163875422.1,Phases=1,Linecode=CAB202_3_1,Length=0.199171000,Units=km
new line.TR10536303 bus1=BMT163875082.2,bus2=BMT6796645B.2,Phases=1,Linecode=CAB202_3_1,Length=0.069246000,Units=km
new line.TR10536310 bus1=BMT6796645B.2,bus2=BMT6796652B.2,Phases=1,Linecode=CAB202_3_1,Length=0.125898000,Units=km
new line.TR10536317 bus1=BMT6796652B.2,bus2=BMT6796659B.2,Phases=1,Linecode=CAB202_3_1,Length=0.100104000,Units=km
new line.TR10536324 bus1=BMT6796659B.2,bus2=BMT6796666B.2,Phases=1,Linecode=CAB202_3_1,Length=0.096587000,Units=km
new line.TR10536331 bus1=BMT6796666B.2,bus2=BMT6796673B.2,Phases=1,Linecode=CAB202_3_1,Length=0.095112000,Units=km
new line.TR10536338 bus1=BMT6796673B.2,bus2=BMT6796680B.2,Phases=1,Linecode=CAB202_3_1,Length=0.128678000,Units=km
new line.TR10536345 bus1=BMT6796680B.2,bus2=BMT6796687B.2,Phases=1,Linecode=CAB202_3_1,Length=0.091791000,Units=km
new line.TR10536352 bus1=BMT6796687B.2,bus2=BMT6796694B.2,Phases=1,Linecode=CAB202_3_1,Length=0.059628000,Units=km
new line.TR10536359 bus1=BMT6796694B.2,bus2=BMT6796701B.2,Phases=1,Linecode=CAB202_3_1,Length=0.095406000,Units=km
new line.TR10536366 bus1=BMT6796701B.2,bus2=BMT163875083.2,Phases=1,Linecode=CAB202_3_1,Length=0.149090000,Units=km
new line.TR10547650 bus1=BMT163875589.3,bus2=BMT163875591.3,Phases=1,Linecode=CAB103_3_1,Length=0.037156000,Units=km
new line.TR10598442 bus1=BMT171389004.1,bus2=BMT6861367B.1,Phases=1,Linecode=CAB202_3_1,Length=0.079598000,Units=km
new line.TR10598449 bus1=BMT6861367B.1,bus2=BMT6861374B.1,Phases=1,Linecode=CAB202_3_1,Length=0.087712000,Units=km
new line.TR10598456 bus1=BMT6861374B.1,bus2=BMT6861381B.1,Phases=1,Linecode=CAB202_3_1,Length=0.218174000,Units=km
new line.TR10598463 bus1=BMT6861381B.1,bus2=BMT6861388B.1,Phases=1,Linecode=CAB202_3_1,Length=0.060817000,Units=km
new line.TR10598470 bus1=BMT6861388B.1,bus2=BMT6861395B.1,Phases=1,Linecode=CAB202_3_1,Length=0.172510000,Units=km
new line.TR10598477 bus1=BMT6861395B.1,bus2=BMT6861402B.1,Phases=1,Linecode=CAB202_3_1,Length=0.195475000,Units=km
new line.TR10598484 bus1=BMT6861402B.1,bus2=BMT6861409B.1,Phases=1,Linecode=CAB202_3_1,Length=0.306085000,Units=km
new line.TR10598491 bus1=BMT6861409B.1,bus2=BMT171389005.1,Phases=1,Linecode=CAB202_3_1,Length=0.065594000,Units=km
new line.TR10603825 bus1=BMT163873863.1,bus2=BMT6867226B.1,Phases=1,Linecode=CAB202_3_1,Length=0.122844000,Units=km
new line.TR10603832 bus1=BMT6867226B.1,bus2=BMT163873865.1,Phases=1,Linecode=CAB202_3_1,Length=0.212706000,Units=km
new line.TR10618245 bus1=BMT163874516.3,bus2=BMT6881226B.3,Phases=1,Linecode=CAB202_3_1,Length=0.090455000,Units=km
new line.TR10618252 bus1=BMT6881226B.3,bus2=BMT6881233B.3,Phases=1,Linecode=CAB202_3_1,Length=0.090857000,Units=km
new line.TR10618259 bus1=BMT6881233B.3,bus2=BMT6881240B.3,Phases=1,Linecode=CAB202_3_1,Length=0.114001000,Units=km
new line.TR10618266 bus1=BMT6881240B.3,bus2=BMT163874517.3,Phases=1,Linecode=CAB202_3_1,Length=0.109584000,Units=km
new line.TR10618336 bus1=BMT3242228B.3,bus2=BMT163874594.3,Phases=1,Linecode=CAB202_3_1,Length=0.065935000,Units=km
new line.TR10618343 bus1=BMT163874594.3,bus2=BMT163874595.3,Phases=1,Linecode=CAB202_3_1,Length=0.079496000,Units=km
new line.TR10618357 bus1=BMT163874594.3,bus2=BMT6881324B.3,Phases=1,Linecode=CAB202_3_1,Length=0.049397000,Units=km
new line.TR10618364 bus1=BMT6881324B.3,bus2=BMT6881331B.3,Phases=1,Linecode=CAB202_3_1,Length=0.080097000,Units=km
new line.TR10618385 bus1=BMT6881345B.3,bus2=BMT6881352B.3,Phases=1,Linecode=CAB202_3_1,Length=0.095883000,Units=km
new line.TR10618392 bus1=BMT6881331B.3,bus2=BMT6881352B.3,Phases=1,Linecode=CAB202_3_1,Length=0.196125000,Units=km
new line.TR10618483 bus1=BMT6881345B.3,bus2=BMT163874596.3,Phases=1,Linecode=CAB202_3_1,Length=0.060197000,Units=km
new line.TR10620828 bus1=BMT171870906.2,bus2=BMT6883431B.2,Phases=1,Linecode=CAB202_3_1,Length=0.129233000,Units=km
new line.TR10620835 bus1=BMT6883431B.2,bus2=BMT6883438B.2,Phases=1,Linecode=CAB202_3_1,Length=0.099388000,Units=km
new line.TR10620842 bus1=BMT6883438B.2,bus2=BMT6883445B.2,Phases=1,Linecode=CAB202_3_1,Length=0.093041000,Units=km
new line.TR10620849 bus1=BMT6883445B.2,bus2=BMT6883452B.2,Phases=1,Linecode=CAB202_3_1,Length=0.115411000,Units=km
new line.TR10620856 bus1=BMT6883452B.2,bus2=BMT171870908.2,Phases=1,Linecode=CAB202_3_1,Length=0.090226000,Units=km
new line.TR10623390 bus1=BMT171218840.3,bus2=BMT6885986B.3,Phases=1,Linecode=CAB202_3_1,Length=0.148194000,Units=km
new line.TR10623397 bus1=BMT6885986B.3,bus2=BMT6885993B.3,Phases=1,Linecode=CAB202_3_1,Length=0.128241000,Units=km
new line.TR10623404 bus1=BMT6885993B.3,bus2=BMT6886000B.3,Phases=1,Linecode=CAB202_3_1,Length=0.130704000,Units=km
new line.TR10623411 bus1=BMT6886000B.3,bus2=BMT171218842.3,Phases=1,Linecode=CAB202_3_1,Length=0.110835000,Units=km
new line.TR10623607 bus1=BMT163874187.1,bus2=BMT6886126B.1,Phases=1,Linecode=CAB202_3_1,Length=0.039816000,Units=km
new line.TR10623614 bus1=BMT6886126B.1,bus2=BMT6886133B.1,Phases=1,Linecode=CAB202_3_1,Length=0.045641000,Units=km
new line.TR10623621 bus1=BMT6886133B.1,bus2=BMT6886140B.1,Phases=1,Linecode=CAB202_3_1,Length=0.068235000,Units=km
new line.TR10623628 bus1=BMT6886140B.1,bus2=BMT163874191.1,Phases=1,Linecode=CAB202_3_1,Length=0.096994000,Units=km
new line.TR10628794 bus1=BMT163874993.3,bus2=BMT163874996.3,Phases=1,Linecode=CAB202_3_1,Length=0.131003000,Units=km
new line.TR10642108 bus1=BMT6903430B.3,bus2=BMT6903528B.3,Phases=1,Linecode=CAB202_3_1,Length=0.164906000,Units=km
new line.TR10642122 bus1=BMT6903563B.3,bus2=BMT163874598.3,Phases=1,Linecode=CAB202_3_1,Length=0.067706000,Units=km
new line.TR10642157 bus1=BMT163874597.3,bus2=BMT6903871B.3,Phases=1,Linecode=CAB202_3_1,Length=0.129009000,Units=km
new line.TR10642164 bus1=BMT6903871B.3,bus2=BMT6903430B.3,Phases=1,Linecode=CAB202_3_1,Length=0.207739000,Units=km
new line.TR10642220 bus1=BMT6903528B.3,bus2=BMT6903927B.3,Phases=1,Linecode=CAB202_3_1,Length=0.082403000,Units=km
new line.TR10642227 bus1=BMT6903927B.3,bus2=BMT6903563B.3,Phases=1,Linecode=CAB202_3_1,Length=0.088215000,Units=km
new line.TR10654694 bus1=BMT163874660.1,bus2=BMT6917570B.1,Phases=1,Linecode=CAB202_3_1,Length=0.094903000,Units=km
new line.TR10654701 bus1=BMT6917570B.1,bus2=BMT163874662.1,Phases=1,Linecode=CAB202_3_1,Length=0.067530000,Units=km
new line.TR10654743 bus1=BMT170651593.1,bus2=BMT6917661B.1,Phases=1,Linecode=CAB202_3_1,Length=0.077650000,Units=km
new line.TR10654750 bus1=BMT6917661B.1,bus2=BMT170651595.1,Phases=1,Linecode=CAB202_3_1,Length=0.122587000,Units=km
new line.TR10654960 bus1=BMT163875152.2,bus2=BMT163875154.2,Phases=1,Linecode=CAB202_3_1,Length=0.175583000,Units=km
new line.TR10683359 bus1=BMT164200651.2,bus2=BMT164200653.2,Phases=1,Linecode=CAB103_3_1,Length=0.052144000,Units=km
new line.TR10684752 bus1=BMT163875319.3,bus2=BMT163875321.3,Phases=1,Linecode=CAB103_3_1,Length=0.026903000,Units=km
new line.TR10684864 bus1=BMT163874193.2,bus2=BMT6946886B.2,Phases=1,Linecode=CAB103_3_1,Length=0.069339000,Units=km
new line.TR10684871 bus1=BMT6946886B.2,bus2=BMT163874195.2,Phases=1,Linecode=CAB103_3_1,Length=0.076521000,Units=km
new line.TR10696603 bus1=BMT163873842.1.2.3,bus2=BMT163873858.1.2.3,Phases=3,Linecode=CAB202_3_3,Length=0.043175000,Units=km
new line.TR10696610 bus1=BMT163873858.1.2.3,bus2=BMT163873859.1.2.3,Phases=3,Linecode=CAB202_3_3,Length=0.053746000,Units=km
new line.TR10696918 bus1=BMT163873867.1,bus2=BMT6958576B.1,Phases=1,Linecode=CAB202_3_1,Length=0.141563000,Units=km
new line.TR10696932 bus1=BMT6958583B.1,bus2=BMT6958597B.1,Phases=1,Linecode=CAB202_3_1,Length=0.163893000,Units=km
new line.TR10696939 bus1=BMT6958597B.1,bus2=BMT163873868.1,Phases=1,Linecode=CAB202_3_1,Length=0.125985000,Units=km
new line.TR10708118 bus1=BMT163875298.1,bus2=BMT163875300.1,Phases=1,Linecode=CAB103_3_1,Length=0.065609000,Units=km
new line.TR10723742 bus1=BMT6958576B.1,bus2=BMT6958583B.1,Phases=1,Linecode=CAB202_3_1,Length=0.182944000,Units=km
new line.TR10728425 bus1=BMT164200651.2,bus2=BMT164200654.2,Phases=1,Linecode=CAB103_3_1,Length=0.028631000,Units=km
new line.TR10740486 bus1=BMT171980014.1.2.3,bus2=BMT165646445.1.2.3,Phases=3,Linecode=CABA06_3_3,Length=0.031315000,Units=km
new line.TR10740493 bus1=BMT165648116.1.2.3,bus2=BMT776849B.1.2.3,Phases=3,Linecode=CABA06_3_3,Length=0.038463000,Units=km
new line.TR10740500 bus1=BMT776849B.1.2.3,bus2=BMT776835B.1.2.3,Phases=3,Linecode=CABA06_3_3,Length=0.039817000,Units=km
new line.TR10740507 bus1=BMT776835B.1.2.3,bus2=BMT776821B.1.2.3,Phases=3,Linecode=CABA06_3_3,Length=0.040698000,Units=km
new line.TR10740514 bus1=BMT776821B.1.2.3,bus2=BMT165648117.1.2.3,Phases=3,Linecode=CABA06_3_3,Length=0.034879000,Units=km
new line.TR10740521 bus1=BMT165648117.1.2.3,bus2=BMT165648118.1.2.3,Phases=3,Linecode=CABA06_3_3,Length=0.040105000,Units=km
new line.TR10744280 bus1=BMT163875526.1,bus2=BMT7006267B.1,Phases=1,Linecode=CAB202_3_1,Length=0.112785000,Units=km
new line.TR10744287 bus1=BMT7006267B.1,bus2=BMT7006274B.1,Phases=1,Linecode=CAB202_3_1,Length=0.116988000,Units=km
new line.TR10744294 bus1=BMT7006274B.1,bus2=BMT7006281B.1,Phases=1,Linecode=CAB202_3_1,Length=0.218568000,Units=km
new line.TR10744301 bus1=BMT7006281B.1,bus2=BMT7006288B.1,Phases=1,Linecode=CAB202_3_1,Length=0.114570000,Units=km
new line.TR10744308 bus1=BMT7006288B.1,bus2=BMT7006302B.1,Phases=1,Linecode=CAB202_3_1,Length=0.075706000,Units=km
new line.TR10744315 bus1=BMT7006302B.1,bus2=BMT163875527.1,Phases=1,Linecode=CAB202_3_1,Length=0.094034000,Units=km
new line.TR10744350 bus1=BMT163875527.1,bus2=BMT163875528.1,Phases=1,Linecode=CAB202_3_1,Length=0.089296000,Units=km
new line.TR10744469 bus1=BMT163875527.1,bus2=BMT163875529.1,Phases=1,Linecode=CAB103_3_1,Length=0.058541000,Units=km
new line.TR10769067 bus1=BMT163875447.1.2.3,bus2=BMT163875449.1.2.3,Phases=3,Linecode=CAB103_3_3,Length=0.020096000,Units=km
new line.TR10788968 bus1=BMT167711125.1.2.3,bus2=BMT848529B.1.2.3,Phases=3,Linecode=CAB104_3_3,Length=0.013998000,Units=km
new line.TR10789031 bus1=BMT167711125.1.2.3,bus2=BMT848508B.1.2.3,Phases=3,Linecode=CAB103_3_3,Length=0.009998000,Units=km
new line.TR10789038 bus1=BMT167711125.1.2.3,bus2=BMT167711127.1.2.3,Phases=3,Linecode=CAB103_3_3,Length=0.032134000,Units=km
new line.TR10796920 bus1=BMT163874643.2,bus2=BMT7055092B.2,Phases=1,Linecode=CAB202_3_1,Length=0.180656000,Units=km
new line.TR10796927 bus1=BMT7055092B.2,bus2=BMT163874645.2,Phases=1,Linecode=CAB202_3_1,Length=0.059805000,Units=km
new line.TR10800322 bus1=BMT163873566.3,bus2=BMT7057402B.3,Phases=1,Linecode=CAB202_3_1,Length=0.051875000,Units=km
new line.TR10800329 bus1=BMT7057402B.3,bus2=BMT7057416B.3,Phases=1,Linecode=CAB202_3_1,Length=0.048365000,Units=km
new line.TR10800336 bus1=BMT7057416B.3,bus2=BMT163873568.3,Phases=1,Linecode=CAB202_3_1,Length=0.092783000,Units=km
new line.TR10818438 bus1=BMT163874162.3,bus2=BMT163874164.3,Phases=1,Linecode=CAB202_3_1,Length=0.139399000,Units=km
new line.TR10818445 bus1=BMT163874164.3,bus2=BMT163874165.3,Phases=1,Linecode=CAB103_3_1,Length=0.078014000,Units=km
new line.TR10879611 bus1=BMT163875440.2,bus2=BMT163875442.2,Phases=1,Linecode=CAB103_3_1,Length=0.010439000,Units=km
new line.TR10879618 bus1=BMT163875442.2,bus2=BMT163875443.2,Phases=1,Linecode=CAB202_3_1,Length=0.070698000,Units=km
new line.TR10879695 bus1=BMT163875635.2,bus2=BMT7128032B.2,Phases=1,Linecode=CAB202_3_1,Length=0.074779000,Units=km
new line.TR10879702 bus1=BMT7128032B.2,bus2=BMT163875638.2,Phases=1,Linecode=CAB202_3_1,Length=0.087190000,Units=km
new line.TR10883055 bus1=BMT168512381.2,bus2=BMT7131462B.2,Phases=1,Linecode=CAB202_3_1,Length=0.134742000,Units=km
new line.TR10883062 bus1=BMT7131462B.2,bus2=BMT168512382.2,Phases=1,Linecode=CAB202_3_1,Length=0.095172000,Units=km
new line.TR11160339 bus1=BMT163874906.1,bus2=BMT7382496B.1,Phases=1,Linecode=CAB202_3_1,Length=0.076532000,Units=km
new line.TR11160346 bus1=BMT7382496B.1,bus2=BMT163874908.1,Phases=1,Linecode=CAB202_3_1,Length=0.067763000,Units=km
new line.TR11252102 bus1=BMT163875528.1,bus2=BMT163875530.1,Phases=1,Linecode=CAB202_3_1,Length=0.109538000,Units=km
new line.TR11289195 bus1=BMT163874555.1.2.3,bus2=BMT7499417B.1.2.3,Phases=3,Linecode=CAB202_3_3,Length=0.078088000,Units=km
new line.TR11289202 bus1=BMT7499417B.1.2.3,bus2=BMT7499424B.1.2.3,Phases=3,Linecode=CAB202_3_3,Length=0.128401000,Units=km
new line.TR11289209 bus1=BMT7499424B.1.2.3,bus2=BMT7499431B.1.2.3,Phases=3,Linecode=CAB202_3_3,Length=0.088668000,Units=km
new line.TR11289216 bus1=BMT7499431B.1.2.3,bus2=BMT163874556.1.2.3,Phases=3,Linecode=CAB202_3_3,Length=0.132073000,Units=km
new line.TR11293801 bus1=BMT163874540.1.2.3,bus2=BMT163874541.1.2.3,Phases=3,Linecode=CAB103_3_3,Length=0.021256000,Units=km
new line.TR11316901 bus1=BMT163874085.3,bus2=BMT7522307B.3,Phases=1,Linecode=CAB202_3_1,Length=0.200716000,Units=km
new line.TR11316908 bus1=BMT7522307B.3,bus2=BMT7522314B.3,Phases=1,Linecode=CAB202_3_1,Length=0.103972000,Units=km
new line.TR11316915 bus1=BMT7522314B.3,bus2=BMT163874087.3,Phases=1,Linecode=CAB202_3_1,Length=0.111585000,Units=km
new line.TR11327303 bus1=BMT163873975.1,bus2=BMT163873976.1,Phases=1,Linecode=CAB202_3_1,Length=0.290340000,Units=km
new line.TR11327324 bus1=BMT163873976.1,bus2=BMT163873977.1,Phases=1,Linecode=CAB202_3_1,Length=0.034919000,Units=km
new line.TR11340701 bus1=BMT163874665.1.2.3,bus2=BMT7542593B.1.2.3,Phases=3,Linecode=CAB202_3_3,Length=0.099228000,Units=km
new line.TR11340708 bus1=BMT7542593B.1.2.3,bus2=BMT7542607B.1.2.3,Phases=3,Linecode=CAB202_3_3,Length=0.099228000,Units=km
new line.TR11340715 bus1=BMT7542607B.1.2.3,bus2=BMT7542614B.1.2.3,Phases=3,Linecode=CAB202_3_3,Length=0.099303000,Units=km
new line.TR11340722 bus1=BMT7542614B.1.2.3,bus2=BMT7542621B.1.2.3,Phases=3,Linecode=CAB202_3_3,Length=0.099228000,Units=km
new line.TR11340729 bus1=BMT7542621B.1.2.3,bus2=BMT7542628B.1.2.3,Phases=3,Linecode=CAB202_3_3,Length=0.099303000,Units=km
new line.TR11340736 bus1=BMT7542628B.1.2.3,bus2=BMT163874666.1.2.3,Phases=3,Linecode=CAB202_3_3,Length=0.088345000,Units=km
new line.TR11351642 bus1=BMT166711472.1,bus2=BMT166711474.1,Phases=1,Linecode=CAB202_3_1,Length=0.193120000,Units=km
new line.TR11351649 bus1=BMT166711474.1,bus2=BMT166711475.1,Phases=1,Linecode=CAB202_3_1,Length=0.053997000,Units=km
new line.TR11351656 bus1=BMT171607599.1,bus2=BMT171607600.1,Phases=1,Linecode=CAB202_3_1,Length=0.163158000,Units=km
new line.TR11351663 bus1=BMT171607600.1,bus2=BMT171607601.1,Phases=1,Linecode=CAB103_3_1,Length=0.072901000,Units=km
new line.TR11358558 bus1=BMT163873939.1,bus2=BMT163873940.1,Phases=1,Linecode=CAB103_3_1,Length=0.069096000,Units=km
new line.TR11388854 bus1=BMT163873773.1,bus2=BMT163873776.1,Phases=1,Linecode=CAB103_3_1,Length=0.015130000,Units=km
new line.TR11392606 bus1=BMT163875011.1,bus2=BMT7597529B.1,Phases=1,Linecode=CAB103_3_1,Length=0.037113000,Units=km
new line.TR11392613 bus1=BMT7597529B.1,bus2=BMT163875013.1,Phases=1,Linecode=CAB103_3_1,Length=0.035347000,Units=km
new line.TR11425485 bus1=BMT163874329.1.2.3,bus2=BMT7631458B.1.2.3,Phases=3,Linecode=CABA06_3_3,Length=0.030670000,Units=km
new line.TR11425527 bus1=BMT7631458B.1.2.3,bus2=BMT7631465B.1.2.3,Phases=3,Linecode=CABA06_3_3,Length=0.035107000,Units=km
new line.TR11425534 bus1=BMT7631465B.1.2.3,bus2=BMT7631472B.1.2.3,Phases=3,Linecode=CABA06_3_3,Length=0.034778000,Units=km
new line.TR11425541 bus1=BMT7631472B.1.2.3,bus2=BMT7631479B.1.2.3,Phases=3,Linecode=CABA06_3_3,Length=0.034169000,Units=km
new line.TR11425548 bus1=BMT7631479B.1.2.3,bus2=BMT7631486B.1.2.3,Phases=3,Linecode=CABA06_3_3,Length=0.026244000,Units=km
new line.TR11425555 bus1=BMT7631486B.1.2.3,bus2=BMT7631493B.1.2.3,Phases=3,Linecode=CABA06_3_3,Length=0.032305000,Units=km
new line.TR11425562 bus1=BMT7631493B.1.2.3,bus2=BMT163874331.1.2.3,Phases=3,Linecode=CABA06_3_3,Length=0.026244000,Units=km
new line.TR11426010 bus1=BMT849187B.1.2.3,bus2=BMT172752125.1.2.3,Phases=3,Linecode=CAB102_3_3,Length=0.013151000,Units=km
new line.TR11426017 bus1=BMT172752125.1.2.3,bus2=BMT172752133.1.2.3,Phases=3,Linecode=CAB102_3_3,Length=0.016276000,Units=km
new line.TR11426031 bus1=BMT847297B.1.2.3,bus2=BMT163873642.1.2.3,Phases=3,Linecode=CABA08_3_3,Length=0.014140000,Units=km
new line.TR11426038 bus1=BMT847304B.1.2.3,bus2=BMT163873642.1.2.3,Phases=3,Linecode=CABA08_3_3,Length=0.022019000,Units=km
new line.TR11426164 bus1=BMT165118569.1.2.3,bus2=BMT165118571.1.2.3,Phases=3,Linecode=CAB103_3_3,Length=0.024203000,Units=km
new line.TR11426171 bus1=BMT165118571.1.2.3,bus2=BMT165118572.1.2.3,Phases=3,Linecode=CABA06_3_3,Length=0.037329000,Units=km
new line.TR11426360 bus1=BMT167711129.1.2.3,bus2=BMT848445B.1.2.3,Phases=3,Linecode=CABA06_3_3,Length=0.029994000,Units=km
new line.TR11426388 bus1=BMT848445B.1.2.3,bus2=BMT848438B.1.2.3,Phases=3,Linecode=CABA06_3_3,Length=0.041609000,Units=km
new line.TR11426395 bus1=BMT848438B.1.2.3,bus2=BMT7632102B.1.2.3,Phases=3,Linecode=CABA06_3_3,Length=0.038992000,Units=km
new line.TR11426402 bus1=BMT7632102B.1.2.3,bus2=BMT7632109B.1.2.3,Phases=3,Linecode=CABA06_3_3,Length=0.039917000,Units=km
new line.TR11426409 bus1=BMT7632109B.1.2.3,bus2=BMT163874288.1.2.3,Phases=3,Linecode=CABA06_3_3,Length=0.041223000,Units=km
new line.TR11426416 bus1=BMT167707736.1.2.3,bus2=BMT7632123B.1.2.3,Phases=3,Linecode=CABA06_3_3,Length=0.034533000,Units=km
new line.TR11426430 bus1=BMT7632095B.1.2.3,bus2=BMT167707738.1.2.3,Phases=3,Linecode=CABA06_3_3,Length=0.044263000,Units=km
new line.TR11426493 bus1=BMT172752125.1.2.3,bus2=BMT7632270B.1.2.3,Phases=3,Linecode=CABA06_3_3,Length=0.034199000,Units=km
new line.TR11426500 bus1=BMT7632270B.1.2.3,bus2=BMT7632277B.1.2.3,Phases=3,Linecode=CABA06_3_3,Length=0.036393000,Units=km
...
