2024_89_CemigReconfigurationCases/1_AlimsCemig/IIIU12/IIIU12ChavesMT.dss
new line.CTR110097 bus1=BMT163874790.1.2.3,bus2=BMT171455450.1.2.3,Phases=3,LineCode=tieSwitch,Length=0.001,Units=km,switch=T !numEQ 50848
new line.CTR138412 bus1=BMT163873783.1,bus2=BMT170651589.1,Phases=1,LineCode=tieSwitch1,Length=0.001,Units=km,switch=T !numEQ 160890
new line.CTR152944 bus1=BMT163875463.1.2.3,bus2=BMT163875468.1.2.3,Phases=3,LineCode=tieSwitch,Length=0.001,Units=km,switch=T !numEQ 51857
new line.CTR23850 bus1=BMT163875257.1.2.3,bus2=BMT163875360.1.2.3,Phases=3,LineCode=tieSwitch,Length=0.001,Units=km,switch=T !numEQ 53919
new line.CTR23962 bus1=BMT163875264.1.2.3,bus2=BMT163875344.1.2.3,Phases=3,LineCode=tieSwitch,Length=0.001,Units=km,switch=T !numEQ 162329
new line.CTR31578 bus1=BMT163875089.1,bus2=BMT163875101.1,Phases=1,LineCode=tieSwitch1,Length=0.001,Units=km,switch=T !numEQ 51907
new line.CTR34784 bus1=BMT163875617.1.2.3,bus2=BMT163875649.1.2.3,Phases=3,LineCode=tieSwitch,Length=0.001,Units=km,switch=T !numEQ 50020
new line.CTR37500 bus1=BMT163874143.1,bus2=BMT163874148.1,Phases=1,LineCode=tieSwitch1,Length=0.001,Units=km,switch=T !numEQ 108078
new line.CTR37514 bus1=BMT163874141.1,bus2=BMT163874151.1,Phases=1,LineCode=tieSwitch1,Length=0.001,Units=km,switch=T !numEQ 108077
new line.CTR4131 bus1=BMT163873950.1,bus2=BMT163873996.1,Phases=1,LineCode=tieSwitch1,Length=0.001,Units=km,switch=T !numEQ 163510
new line.CTR43387 bus1=BMT163875605.1.2.3,bus2=BMT163875666.1.2.3,Phases=3,LineCode=tieSwitch,Length=0.001,Units=km,switch=T !numEQ 50416
new line.CTR46572 bus1=BMT163874585.2,bus2=BMT163874586.2,Phases=1,LineCode=tieSwitch1,Length=0.001,Units=km,switch=T !numEQ 160188
new line.CTR538658 bus1=BMT163873900.1.2.3,bus2=BMT166647541.1.2.3,Phases=3,LineCode=tieSwitch,Length=0.001,Units=km,switch=T !numEQ 50882
new line.CTR542480 bus1=BMT163874239.3,bus2=BMT163873762.3,Phases=1,LineCode=tieSwitch1,Length=0.001,Units=km,switch=T !numEQ 162814
open line.CTR542480 term=1
new line.CTR542606 bus1=BMT163874043.1,bus2=BMT163874052.1,Phases=1,LineCode=tieSwitch1,Length=0.001,Units=km,switch=T !numEQ 159786
new line.CTR542662 bus1=BMT163874078.3,bus2=BMT163874080.3,Phases=1,LineCode=tieSwitch1,Length=0.001,Units=km,switch=T !numEQ 159779
new line.CTR542676 bus1=BMT163873859.1,bus2=BMT163873862.1,Phases=1,LineCode=tieSwitch1,Length=0.001,Units=km,switch=T !numEQ 160854
new line.CTR584459 bus1=BMT163874418.1.2.3,bus2=BMT163874433.1.2.3,Phases=3,LineCode=tieSwitch,Length=0.001,Units=km,switch=T !numEQ 50454
new line.CTR584963 bus1=BMT164200650.2,bus2=BMT164200651.2,Phases=1,LineCode=tieSwitch1,Length=0.001,Units=km,switch=T !numEQ 50584
new line.CTR585747 bus1=BMT163874709.1.2.3,bus2=BMT163874712.1.2.3,Phases=3,LineCode=tieSwitch,Length=0.001,Units=km,switch=T !numEQ 50783
new line.CTR585859 bus1=BMT163875169.1.2.3,bus2=BMT172171171.1.2.3,Phases=3,LineCode=tieSwitch,Length=0.001,Units=km,switch=T !numEQ 50798
new line.CTR585957 bus1=BMT163874569.1.2.3,bus2=BMT163874577.1.2.3,Phases=3,LineCode=tieSwitch,Length=0.001,Units=km,switch=T !numEQ 50786
new line.CTR585971 bus1=BMT163875167.1.2.3,bus2=BMT163875228.1.2.3,Phases=3,LineCode=tieSwitch,Length=0.001,Units=km,switch=T !numEQ 50834
new line.CTR585985 bus1=BMT163875168.1.2.3,bus2=BMT167568639.1.2.3,Phases=3,LineCode=tieSwitch,Length=0.001,Units=km,switch=T !numEQ 50837
new line.CTR585999 bus1=BMT173263858.1.2.3,bus2=BMT163874313.1.2.3,Phases=3,LineCode=tieSwitch,Length=0.001,Units=km,switch=T !numEQ 50840
new line.CTR586125 bus1=BMT163873831.1.2.3,bus2=BMT163874139.1.2.3,Phases=3,LineCode=tieSwitch,Length=0.001,Units=km,switch=T !numEQ 100643
new line.CTR587917 bus1=BMT163875543.1,bus2=BMT163875574.1,Phases=1,LineCode=tieSwitch1,Length=0.001,Units=km,switch=T !numEQ 51376
new line.CTR589093 bus1=BMT163873619.1.2.3,bus2=BMT163874605.1.2.3,Phases=3,LineCode=tieSwitch,Length=0.001,Units=km,switch=T !numEQ 50037
new line.CTR589499 bus1=BMT165117349.1.2.3,bus2=BMT163873669.1.2.3,Phases=3,LineCode=tieSwitch,Length=0.001,Units=km,switch=T !numEQ 51954
open line.CTR589499 term=1
new line.CTR589513 bus1=BMT163874362.1.2.3,bus2=BMT165118568.1.2.3,Phases=3,LineCode=tieSwitch,Length=0.001,Units=km,switch=T !numEQ 51955
new line.CTR589527 bus1=BMT163874364.1.2.3,bus2=BMT171979996.1.2.3,Phases=3,LineCode=tieSwitch,Length=0.001,Units=km,switch=T !numEQ 51956
new line.CTR589555 bus1=BMT163873645.1.2.3,bus2=BMT163873648.1.2.3,Phases=3,LineCode=tieSwitch,Length=0.001,Units=km,switch=T !numEQ 51958
new line.CTR589583 bus1=BMT163873652.1.2.3,bus2=BMT163873654.1.2.3,Phases=3,LineCode=tieSwitch,Length=0.001,Units=km,switch=T !numEQ 51960
new line.CTR589597 bus1=BMT163873653.1.2.3,bus2=BMT172752123.1.2.3,Phases=3,LineCode=tieSwitch,Length=0.001,Units=km,switch=T !numEQ 51961
new line.CTR589625 bus1=BMT163874249.1.2.3,bus2=BMT163874261.1.2.3,Phases=3,LineCode=tieSwitch,Length=0.001,Units=km,switch=T !numEQ 51963
new line.CTR589751 bus1=BMT163874145.2,bus2=BMT163874146.2,Phases=1,LineCode=tieSwitch1,Length=0.001,Units=km,switch=T !numEQ 118766
new line.CTR667857 bus1=BMT163874093.2,bus2=BMT167410750.2,Phases=1,LineCode=tieSwitch1,Length=0.001,Units=km,switch=T !numEQ 159785
new line.CTR669089 bus1=BMT163875599.1.2.3,bus2=BMT163875670.1.2.3,Phases=3,LineCode=tieSwitch,Length=0.001,Units=km,switch=T !numEQ 160267
new line.CTR670594 bus1=BMT163874766.1.2.3,bus2=BMT163873893.1.2.3,Phases=3,LineCode=tieSwitch,Length=0.001,Units=km,switch=T !numEQ 162316
open line.CTR670594 term=1
new line.CTR671231 bus1=BMT163874793.1.2.3,bus2=BMT163874808.1.2.3,Phases=3,LineCode=tieSwitch,Length=0.001,Units=km,switch=T !numEQ 162812
new line.CTR671483 bus1=BMT163874473.1.2.3,bus2=BMT171594849.1.2.3,Phases=3,LineCode=tieSwitch,Length=0.001,Units=km,switch=T !numEQ 50992
new line.CTR672547 bus1=BMT163873804.1.2.3,bus2=BMT163874174.1.2.3,Phases=3,LineCode=tieSwitch,Length=0.001,Units=km,switch=T !numEQ 53368
new line.CTR672561 bus1=BMT163875400.3,bus2=BMT163875403.3,Phases=1,LineCode=tieSwitch1,Length=0.001,Units=km,switch=T !numEQ 128974
new line.CTR672715 bus1=BMT163873853.1.2.3,bus2=BMT172329666.1.2.3,Phases=3,LineCode=tieSwitch,Length=0.001,Units=km,switch=T !numEQ 144038
new line.CTR715870 bus1=BMT163875521.1,bus2=BMT163875524.1,Phases=1,LineCode=tieSwitch1,Length=0.001,Units=km,switch=T !numEQ 198749
new line.CTR716780 bus1=BMT163875004.1,bus2=BMT163875010.1,Phases=1,LineCode=tieSwitch1,Length=0.001,Units=km,switch=T !numEQ 210631
new line.CTR719594 bus1=BMT163874641.2,bus2=BMT163874642.2,Phases=1,LineCode=tieSwitch1,Length=0.001,Units=km,switch=T !numEQ 198125
new line.CTR766235 bus1=BMT163874995.1.2.3,bus2=BMT163875014.1.2.3,Phases=3,LineCode=tieSwitch,Length=0.001,Units=km,switch=T !numEQ 285166
new line.CTR134184 bus1=BMT163875063.1.2.3,bus2=BMT163875081.1.2.3,Phases=3,LineCode=tieSwitch,Length=0.001,Units=km,switch=T !numEQ 50751
new line.CTR568303 bus1=BMT163874119.1,bus2=BMT163874129.1,Phases=1,LineCode=tieSwitch1,Length=0.001,Units=km,switch=T !numEQ 136034
new line.CTR637295 bus1=BMT163874636.2,bus2=BMT163874646.2,Phases=1,LineCode=tieSwitch1,Length=0.001,Units=km,switch=T !numEQ 50214
new line.CTR639990 bus1=BMT172658191.1.2.3,bus2=BMT172658399.1.2.3,Phases=3,LineCode=tieSwitch,Length=0.001,Units=km,switch=T !numEQ 74899
new line.CTR641019 bus1=BMT163875138.1,bus2=BMT163875241.1,Phases=1,LineCode=tieSwitch1,Length=0.001,Units=km,switch=T !numEQ 160181
new line.CTR641495 bus1=BMT163875270.1.2.3,bus2=BMT163875291.1.2.3,Phases=3,LineCode=tieSwitch,Length=0.001,Units=km,switch=T !numEQ 50855
new line.CTR707477 bus1=BMT163874244.1.2.3,bus2=BMT163874245.1.2.3,Phases=3,LineCode=tieSwitch,Length=0.001,Units=km,switch=T !numEQ 162043
new line.CTR707491 bus1=BMT163874264.1.2.3,bus2=BMT163874266.1.2.3,Phases=3,LineCode=tieSwitch,Length=0.001,Units=km,switch=T !numEQ 162046
new line.CTR708247 bus1=BMT163873624.3,bus2=BMT163874597.3,Phases=1,LineCode=tieSwitch1,Length=0.001,Units=km,switch=T !numEQ 210110
new line.CTR795096 bus1=BMT163874862.3,bus2=BMT163874900.3,Phases=1,LineCode=tieSwitch1,Length=0.001,Units=km,switch=T !numEQ 290318
new line.CTR879397 bus1=BMT163873523.1.2.3,bus2=BMT164640626.1.2.3,Phases=3,LineCode=tieSwitch,Length=0.001,Units=km,switch=T !numEQ 238331
new line.CTR879819 bus1=BMT163874932.1.2.3,bus2=BMT163874945.1.2.3,Phases=3,LineCode=tieSwitch,Length=0.001,Units=km,switch=T !numEQ 243894
new line.CTR880643 bus1=BMT163874250.1.2.3,bus2=BMT163874251.1.2.3,Phases=3,LineCode=tieSwitch,Length=0.001,Units=km,switch=T !numEQ 234150
open line.CTR880643 term=1
new line.CTR880650 bus1=BMT163874345.1.2.3,bus2=BMT163874350.1.2.3,Phases=3,LineCode=tieSwitch,Length=0.001,Units=km,switch=T !numEQ 237599
new line.CTR90252 bus1=BMT163873915.1.2.3,bus2=BMT165406877.1.2.3,Phases=3,LineCode=tieSwitch,Length=0.001,Units=km,switch=T !numEQ 51328
new line.CTR902771 bus1=BMT167547115.1.2.3,bus2=BMT167547225.1.2.3,Phases=3,LineCode=tieSwitch,Length=0.001,Units=km,switch=T !numEQ 269803
new line.CTR913290 bus1=BMT171218860.1.2.3,bus2=BMT171239336.1.2.3,Phases=3,LineCode=tieSwitch,Length=0.001,Units=km,switch=T !numEQ 102109
new line.CTR914075 bus1=BMT171455421.1.2.3,bus2=BMT171455660.1.2.3,Phases=3,LineCode=tieSwitch,Length=0.001,Units=km,switch=T !numEQ 275274
new line.CTRR34531 bus1=BMT164061371.1.2.3,bus2=BMT160431686.1.2.3,Phases=3,LineCode=tieSwitch,Length=0.001,Units=km,switch=T !numEQ 234130
open line.CTRR34531 term=1
new line.CTR170626 bus1=BMT163873952.1.2.3,bus2=BMT163873986.1.2.3,Phases=3,LineCode=tieSwitch,Length=0.001,Units=km,switch=T !numEQ 51410
new line.CTR171382 bus1=BMT163875503.2,bus2=BMT163875507.2,Phases=1,LineCode=tieSwitch1,Length=0.001,Units=km,switch=T !numEQ 163444
new line.CTR2472 bus1=BMT163873907.2,bus2=BMT166137067.2,Phases=1,LineCode=tieSwitch1,Length=0.001,Units=km,switch=T !numEQ 163153
new line.CTR30122 bus1=BMT163875451.1.2.3,bus2=BMT163875578.1.2.3,Phases=3,LineCode=tieSwitch,Length=0.001,Units=km,switch=T !numEQ 50796
new line.CTR35372 bus1=BMT163875615.1.2.3,bus2=BMT163875659.1.2.3,Phases=3,LineCode=tieSwitch,Length=0.001,Units=km,switch=T !numEQ 50019
new line.CTR525673 bus1=BMT163874673.1.2.3,bus2=BMT163875133.1.2.3,Phases=3,LineCode=tieSwitch,Length=0.001,Units=km,switch=T !numEQ 53924
new line.CTR526016 bus1=BMT163873569.1.2.3,bus2=BMT168937396.1.2.3,Phases=3,LineCode=tieSwitch,Length=0.001,Units=km,switch=T !numEQ 53925
new line.CTR529460 bus1=BMT163874670.1.2.3,bus2=BMT163874671.1.2.3,Phases=3,LineCode=tieSwitch,Length=0.001,Units=km,switch=T !numEQ 74901
new line.CTR529586 bus1=BMT163873809.3,bus2=BMT163874161.3,Phases=1,LineCode=tieSwitch1,Length=0.001,Units=km,switch=T !numEQ 74480
new line.CTR530538 bus1=BMT163875397.1.2.3,bus2=BMT163875405.1.2.3,Phases=3,LineCode=tieSwitch,Length=0.001,Units=km,switch=T !numEQ 51915
new line.CTR597577 bus1=BMT163875462.1,bus2=BMT163875534.1,Phases=1,LineCode=tieSwitch1,Length=0.001,Units=km,switch=T !numEQ 50835
new line.CTR598221 bus1=BMT163875176.1.2.3,bus2=BMT167619782.1.2.3,Phases=3,LineCode=tieSwitch,Length=0.001,Units=km,switch=T !numEQ 272884
new line.CTR599481 bus1=BMT163873919.1.2.3,bus2=BMT163874016.1.2.3,Phases=3,LineCode=tieSwitch,Length=0.001,Units=km,switch=T !numEQ 51391
new line.CTR601259 bus1=BMT163873656.1.2.3,bus2=BMT163873657.1.2.3,Phases=3,LineCode=tieSwitch,Length=0.001,Units=km,switch=T !numEQ 100269
new line.CTR661753 bus1=BMT163873578.3,bus2=BMT163873579.3,Phases=1,LineCode=tieSwitch1,Length=0.001,Units=km,switch=T !numEQ 163478
new line.CTR663601 bus1=BMT163874022.3,bus2=BMT163874024.3,Phases=1,LineCode=tieSwitch1,Length=0.001,Units=km,switch=T !numEQ 159936
new line.CTR663615 bus1=BMT163873917.1.2.3,bus2=BMT163874021.1.2.3,Phases=3,LineCode=tieSwitch,Length=0.001,Units=km,switch=T !numEQ 159935
new line.CTR666107 bus1=BMT163875474.2,bus2=BMT163875476.2,Phases=1,LineCode=tieSwitch1,Length=0.001,Units=km,switch=T !numEQ 163410
new line.CTR843563 bus1=BMT163875302.1.2.3,bus2=BMT163875329.1.2.3,Phases=3,LineCode=tieSwitch,Length=0.001,Units=km,switch=T !numEQ 313170
new line.CTR844492 bus1=BMT163874140.1,bus2=BMT163874157.1,Phases=1,LineCode=tieSwitch1,Length=0.001,Units=km,switch=T !numEQ 316789
new line.CTR889332 bus1=BMT163873772.3,bus2=BMT165051508.3,Phases=1,LineCode=tieSwitch1,Length=0.001,Units=km,switch=T !numEQ 245316
new line.CTR889875 bus1=BMT163874295.1.2.3,bus2=BMT163874300.1.2.3,Phases=3,LineCode=tieSwitch,Length=0.001,Units=km,switch=T !numEQ 259640
new line.CTR908539 bus1=BMT169605537.1,bus2=BMT171389002.1,Phases=1,LineCode=tieSwitch1,Length=0.001,Units=km,switch=T !numEQ 375051
new line.CTR145286 bus1=BMT163874349.1.2.3,bus2=BMT165117337.1.2.3,Phases=3,LineCode=tieSwitch,Length=0.001,Units=km,switch=T !numEQ 51382
new line.CTR146028 bus1=BMT163875498.1,bus2=BMT170533400.1,Phases=1,LineCode=tieSwitch1,Length=0.001,Units=km,switch=T !numEQ 119984
new line.CTR36212 bus1=BMT163874486.1.2.3,bus2=BMT172008198.1.2.3,Phases=3,LineCode=tieSwitch,Length=0.001,Units=km,switch=T !numEQ 50991
new line.CTR41574 bus1=BMT163873723.3,bus2=BMT163873731.3,Phases=1,LineCode=tieSwitch1,Length=0.001,Units=km,switch=T !numEQ 160232
new line.CTR46838 bus1=BMT163874676.1.2.3,bus2=BMT168509178.1.2.3,Phases=3,LineCode=tieSwitch,Length=0.001,Units=km,switch=T !numEQ 136045
new line.CTR46852 bus1=BMT163873763.1.2.3,bus2=BMT163873764.1.2.3,Phases=3,LineCode=tieSwitch,Length=0.001,Units=km,switch=T !numEQ 161017
new line.CTR546358 bus1=BMT163873693.1.2.3,bus2=BMT163873740.1.2.3,Phases=3,LineCode=tieSwitch,Length=0.001,Units=km,switch=T !numEQ 128978
new line.CTR548010 bus1=BMT163874746.1.2.3,bus2=BMT170688019.1.2.3,Phases=3,LineCode=tieSwitch,Length=0.001,Units=km,switch=T !numEQ 320086
new line.CTR548584 bus1=BMT163874841.3,bus2=BMT163874917.3,Phases=1,LineCode=tieSwitch1,Length=0.001,Units=km,switch=T !numEQ 160175
new line.CTR548598 bus1=BMT163874981.1.2.3,bus2=BMT163875034.1.2.3,Phases=3,LineCode=tieSwitch,Length=0.001,Units=km,switch=T !numEQ 160233
new line.CTR548766 bus1=BMT163874529.3,bus2=BMT163874531.3,Phases=1,LineCode=tieSwitch1,Length=0.001,Units=km,switch=T !numEQ 160356
new line.CTR549690 bus1=BMT163875029.3,bus2=BMT163875031.3,Phases=1,LineCode=tieSwitch1,Length=0.001,Units=km,switch=T !numEQ 163499
new line.CTR550040 bus1=BMT163875180.1.2.3,bus2=BMT172827510.1.2.3,Phases=3,LineCode=tieSwitch,Length=0.001,Units=km,switch=T !numEQ 160182
new line.CTR550054 bus1=BMT163875345.1,bus2=BMT163875347.1,Phases=1,LineCode=tieSwitch1,Length=0.001,Units=km,switch=T !numEQ 160240
new line.CTR595057 bus1=BMT163873629.1.2.3,bus2=BMT169178415.1.2.3,Phases=3,LineCode=tieSwitch,Length=0.001,Units=km,switch=T !numEQ 53538
new line.CTR595316 bus1=BMT163873927.1.2.3,bus2=BMT163874004.1.2.3,Phases=3,LineCode=tieSwitch,Length=0.001,Units=km,switch=T !numEQ 50887
new line.CTR596163 bus1=BMT163874763.1.2.3,bus2=BMT164061334.1.2.3,Phases=3,LineCode=tieSwitch,Length=0.001,Units=km,switch=T !numEQ 50016
new line.CTR596289 bus1=BMT163875090.1.2.3,bus2=BMT163875092.1.2.3,Phases=3,LineCode=tieSwitch,Length=0.001,Units=km,switch=T !numEQ 51160
new line.CTR633333 bus1=BMT163873565.3,bus2=BMT171843492.3,Phases=1,LineCode=tieSwitch1,Length=0.001,Units=km,switch=T !numEQ 50362
new line.CTR674437 bus1=BMT163874852.3,bus2=BMT163874911.3,Phases=1,LineCode=tieSwitch1,Length=0.001,Units=km,switch=T !numEQ 159930
new line.CTR677951 bus1=BMT163874725.3,bus2=BMT163874727.3,Phases=1,LineCode=tieSwitch1,Length=0.001,Units=km,switch=T !numEQ 198443
new line.CTR678042 bus1=BMT163874758.3,bus2=BMT170001673.3,Phases=1,LineCode=tieSwitch1,Length=0.001,Units=km,switch=T !numEQ 160171
new line.CTR679379 bus1=BMT163874858.1,bus2=BMT163874904.1,Phases=1,LineCode=tieSwitch1,Length=0.001,Units=km,switch=T !numEQ 163670
new line.CTR71016 bus1=BMT163873615.1.2.3,bus2=BMT172304661.1.2.3,Phases=3,LineCode=tieSwitch,Length=0.001,Units=km,switch=T !numEQ 50039
new line.CTR711229 bus1=BMT163874175.2,bus2=BMT163874192.2,Phases=1,LineCode=tieSwitch1,Length=0.001,Units=km,switch=T !numEQ 198115
new line.CTR712188 bus1=BMT163873858.1,bus2=BMT163873867.1,Phases=1,LineCode=tieSwitch1,Length=0.001,Units=km,switch=T !numEQ 210265
new line.CTR755399 bus1=BMT163874552.1.2.3,bus2=BMT163874554.1.2.3,Phases=3,LineCode=tieSwitch,Length=0.001,Units=km,switch=T !numEQ 210750
new line.CTR758479 bus1=BMT163873605.1.2.3,bus2=BMT163874665.1.2.3,Phases=3,LineCode=tieSwitch,Length=0.001,Units=km,switch=T !numEQ 210751
new line.CTR8044 bus1=BMT163874865.1,bus2=BMT166711468.1,Phases=1,LineCode=tieSwitch1,Length=0.001,Units=km,switch=T !numEQ 51897
new line.CTR804490 bus1=BMT163874288.1.2.3,bus2=BMT167707736.1.2.3,Phases=3,LineCode=tieSwitch,Length=0.001,Units=km,switch=T !numEQ 290198
new line.CTR805729 bus1=BMT163873642.1.2.3,bus2=BMT163874535.1.2.3,Phases=3,LineCode=tieSwitch,Length=0.001,Units=km,switch=T !numEQ 299951
new line.CTR805974 bus1=BMT163875122.2,bus2=BMT163875123.2,Phases=1,LineCode=tieSwitch1,Length=0.001,Units=km,switch=T !numEQ 290283
new line.CTR80704 bus1=BMT163874756.1.2.3,bus2=BMT163874757.1.2.3,Phases=3,LineCode=tieSwitch,Length=0.001,Units=km,switch=T !numEQ 50015
new line.CTR807059 bus1=BMT163873817.1.2.3,bus2=BMT163873818.1.2.3,Phases=3,LineCode=tieSwitch,Length=0.001,Units=km,switch=T !numEQ 162437
new line.CTR80732 bus1=BMT163875613.1.2.3,bus2=BMT163875661.1.2.3,Phases=3,LineCode=tieSwitch,Length=0.001,Units=km,switch=T !numEQ 50018
new line.CTR808368 bus1=BMT163874845.2,bus2=BMT163874913.2,Phases=1,LineCode=tieSwitch1,Length=0.001,Units=km,switch=T !numEQ 159705
new line.CTR848770 bus1=BMT163874235.3,bus2=BMT163874240.3,Phases=1,LineCode=tieSwitch1,Length=0.001,Units=km,switch=T !numEQ 377580
new line.CTR858217 bus1=BMT163875471.1,bus2=BMT163875531.1,Phases=1,LineCode=tieSwitch1,Length=0.001,Units=km,switch=T !numEQ 385576
new line.CTR858365 bus1=BMT163875551.1.3,bus2=BMT163875561.1.3,Phases=2,LineCode=tieSwitch,Length=0.001,Units=km,switch=T !numEQ 385580
new line.CTR871644 bus1=BMT163874279.1.2.3,bus2=BMT167711124.1.2.3,Phases=3,LineCode=tieSwitch,Length=0.001,Units=km,switch=T !numEQ 243876
new line.CTR882278 bus1=BMT163874946.2,bus2=BMT163874950.2,Phases=1,LineCode=tieSwitch1,Length=0.001,Units=km,switch=T !numEQ 234080
new line.CTR893321 bus1=BMT165646445.1.2.3,bus2=BMT165648116.1.2.3,Phases=3,LineCode=tieSwitch,Length=0.001,Units=km,switch=T !numEQ 258881
new line.CTR893324 bus1=BMT164384616.1.2.3,bus2=BMT164384617.1.2.3,Phases=3,LineCode=tieSwitch,Length=0.001,Units=km,switch=T !numEQ 264036
new line.CTR89384 bus1=BMT163874546.1.2.3,bus2=BMT164200638.1.2.3,Phases=3,LineCode=tieSwitch,Length=0.001,Units=km,switch=T !numEQ 50378
new line.CTR903045 bus1=BMT167619783.1.2.3,bus2=BMT167619795.1.2.3,Phases=3,LineCode=tieSwitch,Length=0.001,Units=km,switch=T !numEQ 272934
new line.CTR903310 bus1=BMT167710814.1.2.3,bus2=BMT167710815.1.2.3,Phases=3,LineCode=tieSwitch,Length=0.001,Units=km,switch=T !numEQ 161910
new line.CTRR18320 bus1=BMT163874265.1.2.3,bus2=BMT150354757.1.2.3,Phases=3,LineCode=tieSwitch,Length=0.001,Units=km,switch=T !numEQ 222575
open line.CTRR18320 term=1
new line.CTRR36966 bus1=BMT163873941.1.2.3,bus2=BMT161458504.1.2.3,Phases=3,LineCode=tieSwitch,Length=0.001,Units=km,switch=T !numEQ 161128
open line.CTRR36966 term=1
new line.CTR768510 bus1=BMT163874870.2,bus2=BMT163874872.2,Phases=1,LineCode=tieSwitch1,Length=0.001,Units=km,switch=T !numEQ 210442
new line.CTR82622 bus1=BMT165116847.1.2.3,bus2=BMT163874260.1.2.3,Phases=3,LineCode=tieSwitch,Length=0.001,Units=km,switch=T !numEQ 50562
open line.CTR82622 term=1
new line.CTR82832 bus1=BMT163875070.3,bus2=BMT163875075.3,Phases=1,LineCode=tieSwitch1,Length=0.001,Units=km,switch=T !numEQ 50605
new line.CTR82846 bus1=BMT163873572.1.2.3,bus2=BMT163873573.1.2.3,Phases=3,LineCode=tieSwitch,Length=0.001,Units=km,switch=T !numEQ 50773
new line.CTR851603 bus1=BMT163874455.1.2.3,bus2=BMT163874476.1.2.3,Phases=3,LineCode=tieSwitch,Length=0.001,Units=km,switch=T !numEQ 372694
new line.CTR860579 bus1=BMT163875334.3,bus2=BMT163875338.3,Phases=1,LineCode=tieSwitch1,Length=0.001,Units=km,switch=T !numEQ 313492
new line.CTR875697 bus1=BMT163874713.1.2.3,bus2=BMT163874739.1.2.3,Phases=3,LineCode=tieSwitch,Length=0.001,Units=km,switch=T !numEQ 245368
new line.CTR895951 bus1=BMT165104789.1.2.3,bus2=BMT165121089.1.2.3,Phases=3,LineCode=tieSwitch,Length=0.001,Units=km,switch=T !numEQ 234149
new line.CTR909895 bus1=BMT170046589.1.2.3,bus2=BMT170475101.1.2.3,Phases=3,LineCode=tieSwitch,Length=0.001,Units=km,switch=T !numEQ 275779
new line.CTRR38773 bus1=BMT165106662.1.2.3,bus2=BMT165109677.1.2.3,Phases=3,LineCode=tieSwitch,Length=0.001,Units=km,switch=T !numEQ 162035
new line.CTR143494 bus1=BMT163874710.1.2.3,bus2=BMT172592959.1.2.3,Phases=3,LineCode=tieSwitch,Length=0.001,Units=km,switch=T !numEQ 50784
new line.CTR14386 bus1=BMT163873987.2,bus2=BMT163873990.2,Phases=1,LineCode=tieSwitch1,Length=0.001,Units=km,switch=T !numEQ 159820
new line.CTR157536 bus1=BMT163875464.3,bus2=BMT163875465.3,Phases=1,LineCode=tieSwitch1,Length=0.001,Units=km,switch=T !numEQ 51159
new line.CTR36590 bus1=BMT163873797.1.2.3,bus2=BMT163874197.1.2.3,Phases=3,LineCode=tieSwitch,Length=0.001,Units=km,switch=T !numEQ 50380
new line.CTR515600 bus1=BMT163874481.3,bus2=BMT163874509.3,Phases=1,LineCode=tieSwitch1,Length=0.001,Units=km,switch=T !numEQ 159944
new line.CTR517511 bus1=BMT163873785.1.2.3,bus2=BMT164128009.1.2.3,Phases=3,LineCode=tieSwitch,Length=0.001,Units=km,switch=T !numEQ 51908
new line.CTR517539 bus1=BMT163873796.1,bus2=BMT163874199.1,Phases=1,LineCode=tieSwitch1,Length=0.001,Units=km,switch=T !numEQ 50670
new line.CTR518652 bus1=BMT163874519.3,bus2=BMT163874526.3,Phases=1,LineCode=tieSwitch1,Length=0.001,Units=km,switch=T !numEQ 198471
new line.CTR519212 bus1=BMT163873620.1.2.3,bus2=BMT163874616.1.2.3,Phases=3,LineCode=tieSwitch,Length=0.001,Units=km,switch=T !numEQ 50038
new line.CTR558496 bus1=BMT163874678.1.2.3,bus2=BMT171870903.1.2.3,Phases=3,LineCode=tieSwitch,Length=0.001,Units=km,switch=T !numEQ 280063
new line.CTR558902 bus1=BMT163873904.1.2.3,bus2=BMT163874070.1.2.3,Phases=3,LineCode=tieSwitch,Length=0.001,Units=km,switch=T !numEQ 50865
new line.CTR560813 bus1=BMT163873840.1.2.3,bus2=BMT163873841.1.2.3,Phases=3,LineCode=tieSwitch,Length=0.001,Units=km,switch=T !numEQ 50333
new line.CTR609659 bus1=BMT163875260.1,bus2=BMT163875352.1,Phases=1,LineCode=tieSwitch1,Length=0.001,Units=km,switch=T !numEQ 108297
new line.CTR644309 bus1=BMT163875473.1.2.3,bus2=BMT167995707.1.2.3,Phases=3,LineCode=tieSwitch,Length=0.001,Units=km,switch=T !numEQ 74794
new line.CTR644673 bus1=BMT163875370.1,bus2=BMT163875423.1,Phases=1,LineCode=tieSwitch1,Length=0.001,Units=km,switch=T !numEQ 51896
new line.CTR644687 bus1=BMT163875454.1.2.3,bus2=BMT166484335.1.2.3,Phases=3,LineCode=tieSwitch,Length=0.001,Units=km,switch=T !numEQ 51856
new line.CTR683649 bus1=BMT163874262.2,bus2=BMT163874271.2,Phases=1,LineCode=tieSwitch1,Length=0.001,Units=km,switch=T !numEQ 162898
new line.CTR725362 bus1=BMT163873562.2,bus2=BMT163875439.2,Phases=1,LineCode=tieSwitch1,Length=0.001,Units=km,switch=T !numEQ 210632
new line.CTR72598 bus1=BMT163874183.1,bus2=BMT163874185.1,Phases=1,LineCode=tieSwitch1,Length=0.001,Units=km,switch=T !numEQ 51027
new line.CTR81698 bus1=BMT163874472.1.2.3,bus2=BMT171566766.1.2.3,Phases=3,LineCode=tieSwitch,Length=0.001,Units=km,switch=T !numEQ 50307
new line.CTR81712 bus1=BMT163874419.1.2.3,bus2=BMT163874441.1.2.3,Phases=3,LineCode=tieSwitch,Length=0.001,Units=km,switch=T !numEQ 50309
new line.CTR81726 bus1=BMT163873752.3,bus2=BMT163874231.3,Phases=1,LineCode=tieSwitch1,Length=0.001,Units=km,switch=T !numEQ 308222
new line.CTR81754 bus1=BMT163874677.2,bus2=BMT163875121.2,Phases=1,LineCode=tieSwitch1,Length=0.001,Units=km,switch=T !numEQ 50312
new line.CTR819687 bus1=BMT163873823.1.2.3,bus2=BMT163873824.1.2.3,Phases=3,LineCode=tieSwitch,Length=0.001,Units=km,switch=T !numEQ 297374
new line.CTR82146 bus1=BMT173263854.1.2.3,bus2=BMT173263856.1.2.3,Phases=3,LineCode=tieSwitch,Length=0.001,Units=km,switch=T !numEQ 259638
new line.CTR82300 bus1=BMT163874323.1.2.3,bus2=BMT172574665.1.2.3,Phases=3,LineCode=tieSwitch,Length=0.001,Units=km,switch=T !numEQ 50475
new line.CTR864611 bus1=BMT163874866.2,bus2=BMT163874874.2,Phases=1,LineCode=tieSwitch1,Length=0.001,Units=km,switch=T !numEQ 375026
new line.CTR865145 bus1=BMT163873775.1.2.3,bus2=BMT164155849.1.2.3,Phases=3,LineCode=tieSwitch,Length=0.001,Units=km,switch=T !numEQ 182377
new line.CTR899375 bus1=BMT166482350.1.2.3,bus2=BMT166482950.1.2.3,Phases=3,LineCode=tieSwitch,Length=0.001,Units=km,switch=T !numEQ 254353
new line.CTR899379 bus1=BMT166484338.1.2.3,bus2=BMT166484352.1.2.3,Phases=3,LineCode=tieSwitch,Length=0.001,Units=km,switch=T !numEQ 266784
new line.CTR900168 bus1=BMT166711474.1,bus2=BMT171607599.1,Phases=1,LineCode=tieSwitch1,Length=0.001,Units=km,switch=T !numEQ 269788
new line.CTR911806 bus1=BMT170688020.3,bus2=BMT170688031.3,Phases=1,LineCode=tieSwitch1,Length=0.001,Units=km,switch=T !numEQ 320085
new line.CTR912605 bus1=BMT170989595.2,bus2=BMT170989665.2,Phases=1,LineCode=tieSwitch1,Length=0.001,Units=km,switch=T !numEQ 272315
new line.CTR912636 bus1=BMT171980001.1.2.3,bus2=BMT171980003.1.2.3,Phases=3,LineCode=tieSwitch,Length=0.001,Units=km,switch=T !numEQ 280827
new line.CTR93990 bus1=BMT163874351.1.2.3,bus2=BMT163874353.1.2.3,Phases=3,LineCode=tieSwitch,Length=0.001,Units=km,switch=T !numEQ 100273
new line.CTR94004 bus1=BMT163873692.1.2.3,bus2=BMT163873742.1.2.3,Phases=3,LineCode=tieSwitch,Length=0.001,Units=km,switch=T !numEQ 100268
new line.CTRR31987 bus1=BMT163873758.1.2.3,bus2=BMT163873760.1.2.3,Phases=3,LineCode=tieSwitch,Length=0.001,Units=km,switch=T !numEQ 108092
new line.CTR13546 bus1=BMT163874718.2,bus2=BMT163874735.2,Phases=1,LineCode=tieSwitch1,Length=0.001,Units=km,switch=T !numEQ 160246
new line.CTR15030 bus1=BMT163875391.1.2.3,bus2=BMT163875409.1.2.3,Phases=3,LineCode=tieSwitch,Length=0.001,Units=km,switch=T !numEQ 50794
new line.CTR15044 bus1=BMT163873593.1.2.3,bus2=BMT163873577.1.2.3,Phases=3,LineCode=tieSwitch,Length=0.001,Units=km,switch=T !numEQ 50035
open line.CTR15044 term=1
new line.CTR15058 bus1=BMT163873584.1.2.3,bus2=BMT163873597.1.2.3,Phases=3,LineCode=tieSwitch,Length=0.001,Units=km,switch=T !numEQ 50771
new line.CTR15072 bus1=BMT163873588.1.2.3,bus2=BMT168512374.1.2.3,Phases=3,LineCode=tieSwitch,Length=0.001,Units=km,switch=T !numEQ 50008
new line.CTR15086 bus1=BMT163875258.1.2.3,bus2=BMT163875355.1.2.3,Phases=3,LineCode=tieSwitch,Length=0.001,Units=km,switch=T !numEQ 53920
new line.CTR165208 bus1=BMT163874037.3,bus2=BMT163874056.3,Phases=1,LineCode=tieSwitch1,Length=0.001,Units=km,switch=T !numEQ 159788
new line.CTR166531 bus1=BMT163874560.3,bus2=BMT163874589.3,Phases=1,LineCode=tieSwitch1,Length=0.001,Units=km,switch=T !numEQ 160986
new line.CTR166636 bus1=BMT163874686.1.2.3,bus2=BMT163875110.1.2.3,Phases=3,LineCode=tieSwitch,Length=0.001,Units=km,switch=T !numEQ 160001
new line.CTR21134 bus1=BMT163873936.1.2.3,bus2=BMT163873944.1.2.3,Phases=3,LineCode=tieSwitch,Length=0.001,Units=km,switch=T !numEQ 50870
new line.CTR21176 bus1=BMT163873851.1.2.3,bus2=BMT170081010.1.2.3,Phases=3,LineCode=tieSwitch,Length=0.001,Units=km,switch=T !numEQ 50879
new line.CTR35456 bus1=BMT163873611.1.2.3,bus2=BMT168969887.1.2.3,Phases=3,LineCode=tieSwitch,Length=0.001,Units=km,switch=T !numEQ 50838
new line.CTR522257 bus1=BMT163873545.1.2.3,bus2=BMT171218835.1.2.3,Phases=3,LineCode=tieSwitch,Length=0.001,Units=km,switch=T !numEQ 50003
new line.CTR522299 bus1=BMT163873594.1.2.3,bus2=BMT163875243.1.2.3,Phases=3,LineCode=tieSwitch,Length=0.001,Units=km,switch=T !numEQ 50009
new line.CTR522313 bus1=BMT163873602.1.2.3,bus2=BMT163875137.1.2.3,Phases=3,LineCode=tieSwitch,Length=0.001,Units=km,switch=T !numEQ 272883
new line.CTR522327 bus1=BMT163873609.1.2.3,bus2=BMT163874659.1.2.3,Phases=3,LineCode=tieSwitch,Length=0.001,Units=km,switch=T !numEQ 74531
new line.CTR522614 bus1=BMT163874484.1.2.3,bus2=BMT163874505.1.2.3,Phases=3,LineCode=tieSwitch,Length=0.001,Units=km,switch=T !numEQ 50170
new line.CTR523300 bus1=BMT163874610.1,bus2=BMT163874612.1,Phases=1,LineCode=tieSwitch1,Length=0.001,Units=km,switch=T !numEQ 50792
new line.CTR523314 bus1=BMT163875458.1.3,bus2=BMT163875542.1.3,Phases=2,LineCode=tieSwitch,Length=0.001,Units=km,switch=T !numEQ 50795
new line.CTR523412 bus1=BMT163874485.1.2.3,bus2=BMT163874493.1.2.3,Phases=3,LineCode=tieSwitch,Length=0.001,Units=km,switch=T !numEQ 249831
new line.CTR578019 bus1=BMT163873923.1.2.3,bus2=BMT163873924.1.2.3,Phases=3,LineCode=tieSwitch,Length=0.001,Units=km,switch=T !numEQ 50878
new line.CTR582933 bus1=BMT163873557.1.2.3,bus2=BMT163875444.1.2.3,Phases=3,LineCode=tieSwitch,Length=0.001,Units=km,switch=T !numEQ 50002
new line.CTR582947 bus1=BMT163873559.1.2.3,bus2=BMT163873561.1.2.3,Phases=3,LineCode=tieSwitch,Length=0.001,Units=km,switch=T !numEQ 50000
new line.CTR582961 bus1=BMT163873621.1.2.3,bus2=BMT166225917.1.2.3,Phases=3,LineCode=tieSwitch,Length=0.001,Units=km,switch=T !numEQ 50005
new line.CTR582975 bus1=BMT163874700.1.2.3,bus2=BMT163874701.1.2.3,Phases=3,LineCode=tieSwitch,Length=0.001,Units=km,switch=T !numEQ 50006
new line.CTR582989 bus1=BMT163873596.1.2.3,bus2=BMT172658197.1.2.3,Phases=3,LineCode=tieSwitch,Length=0.001,Units=km,switch=T !numEQ 50010
new line.CTR583003 bus1=BMT163873607.1.2.3,bus2=BMT163873608.1.2.3,Phases=3,LineCode=tieSwitch,Length=0.001,Units=km,switch=T !numEQ 50013
new line.CTR583017 bus1=BMT163874753.1.2.3,bus2=BMT171587760.1.2.3,Phases=3,LineCode=tieSwitch,Length=0.001,Units=km,switch=T !numEQ 50014
new line.CTR583059 bus1=BMT163873616.1.2.3,bus2=BMT163873617.1.2.3,Phases=3,LineCode=tieSwitch,Length=0.001,Units=km,switch=T !numEQ 50034
new line.CTR583115 bus1=BMT163875624.1.2.3,bus2=BMT163875643.1.2.3,Phases=3,LineCode=tieSwitch,Length=0.001,Units=km,switch=T !numEQ 50040
new line.CTR583647 bus1=BMT163875309.3,bus2=BMT163875314.3,Phases=1,LineCode=tieSwitch1,Length=0.001,Units=km,switch=T !numEQ 50215
new line.CTR656909 bus1=BMT167735533.1.2.3,bus2=BMT163873882.1.2.3,Phases=3,LineCode=tieSwitch,Length=0.001,Units=km,switch=T !numEQ 162311
new line.CTR658456 bus1=BMT163873779.1.2.3,bus2=BMT163873787.1.2.3,Phases=3,LineCode=tieSwitch,Length=0.001,Units=km,switch=T !numEQ 50224
new line.CTR658470 bus1=BMT163873805.1.2.3,bus2=BMT169958511.1.2.3,Phases=3,LineCode=tieSwitch,Length=0.001,Units=km,switch=T !numEQ 52479
new line.CTR659583 bus1=BMT163874103.3,bus2=BMT163874106.3,Phases=1,LineCode=tieSwitch1,Length=0.001,Units=km,switch=T !numEQ 160010
new line.CTR80942 bus1=BMT163873551.1.2.3,bus2=BMT163873556.1.2.3,Phases=3,LineCode=tieSwitch,Length=0.001,Units=km,switch=T !numEQ 50066
new line.CTR85632 bus1=BMT163873646.1.2.3,bus2=BMT165114767.1.2.3,Phases=3,LineCode=tieSwitch,Length=0.001,Units=km,switch=T !numEQ 51383
new line.CTR85688 bus1=BMT163874937.2,bus2=BMT170989590.2,Phases=1,LineCode=tieSwitch1,Length=0.001,Units=km,switch=T !numEQ 51413
new line.CTR878319 bus1=BMT163873973.1,bus2=BMT163873975.1,Phases=1,LineCode=tieSwitch1,Length=0.001,Units=km,switch=T !numEQ 237380
new line.CTR878727 bus1=BMT163874497.1.2.3,bus2=BMT163874498.1.2.3,Phases=3,LineCode=tieSwitch,Length=0.001,Units=km,switch=T !numEQ 253598
new line.CTR878728 bus1=BMT163874496.3,bus2=BMT163874500.3,Phases=1,LineCode=tieSwitch1,Length=0.001,Units=km,switch=T !numEQ 253597
new line.CTR898389 bus1=BMT166137069.2,bus2=BMT166138001.2,Phases=1,LineCode=tieSwitch1,Length=0.001,Units=km,switch=T !numEQ 269755
new line.CTR915316 bus1=BMT171787849.1.2.3,bus2=BMT171787858.1.2.3,Phases=3,LineCode=tieSwitch,Length=0.001,Units=km,switch=T !numEQ 325183
new line.CTR915532 bus1=BMT171870904.1.2.3,bus2=BMT171870909.1.2.3,Phases=3,LineCode=tieSwitch,Length=0.001,Units=km,switch=T !numEQ 280062
new line.CTR915926 bus1=BMT172008204.2,bus2=BMT172008205.2,Phases=1,LineCode=tieSwitch1,Length=0.001,Units=km,switch=T !numEQ 320083
new line.CTR915934 bus1=BMT172009460.1.2.3,bus2=BMT172827435.1.2.3,Phases=3,LineCode=tieSwitch,Length=0.001,Units=km,switch=T !numEQ 264076
new line.CTR149304 bus1=BMT163874702.1.2.3,bus2=BMT169927266.1.2.3,Phases=3,LineCode=tieSwitch,Length=0.001,Units=km,switch=T !numEQ 50007
new line.CTR149332 bus1=BMT163874703.1.2.3,bus2=BMT163875056.1.2.3,Phases=3,LineCode=tieSwitch,Length=0.001,Units=km,switch=T !numEQ 50025
new line.CTR149339 bus1=BMT163875071.1.2.3,bus2=BMT163875073.1.2.3,Phases=3,LineCode=tieSwitch,Length=0.001,Units=km,switch=T !numEQ 51549
new line.CTR149836 bus1=BMT163874408.1.2.3,bus2=BMT163874422.1.2.3,Phases=3,LineCode=tieSwitch,Length=0.001,Units=km,switch=T !numEQ 142930
new line.CTR193517987 bus1=BMT2946333406.1.2.3,bus2=BMT2417736346.1.2.3,Phases=3,LineCode=tieSwitch,Length=0.001,Units=km,switch=T !numEQ 
new line.CTR193518189 bus1=BMT2389066572.1.2.3,bus2=BMT2193517838.1.2.3,Phases=3,LineCode=tieSwitch,Length=0.001,Units=km,switch=T !numEQ 
new line.CTR193518388 bus1=BMT2417736346.1.2.3,bus2=BMT2389066572.1.2.3,Phases=3,LineCode=tieSwitch,Length=0.001,Units=km,switch=T !numEQ 
new line.CTR48182 bus1=BMT163873928.2,bus2=BMT172034538.2,Phases=1,LineCode=tieSwitch1,Length=0.001,Units=km,switch=T !numEQ 50867
new line.CTR555108 bus1=BMT163873777.1,bus2=BMT163874218.1,Phases=1,LineCode=tieSwitch1,Length=0.001,Units=km,switch=T !numEQ 100114
new line.CTR621237 bus1=BMT163873955.1.2.3,bus2=BMT163873983.1.2.3,Phases=3,LineCode=tieSwitch,Length=0.001,Units=km,switch=T !numEQ 159819
new line.CTR701044 bus1=BMT163875583.3,bus2=BMT163875588.3,Phases=1,LineCode=tieSwitch1,Length=0.001,Units=km,switch=T !numEQ 210456
new line.CTR776329 bus1=BMT163873961.1.2.3,bus2=BMT163873972.1.2.3,Phases=3,LineCode=tieSwitch,Length=0.001,Units=km,switch=T !numEQ 290333
new line.CTR781348 bus1=BMT163873687.1.2.3,bus2=BMT163873744.1.2.3,Phases=3,LineCode=tieSwitch,Length=0.001,Units=km,switch=T !numEQ 285058
new line.CTR782440 bus1=BMT163874590.3,bus2=BMT163874591.3,Phases=1,LineCode=tieSwitch1,Length=0.001,Units=km,switch=T !numEQ 297306
new line.CTR845793 bus1=BMT163874166.3,bus2=BMT163874167.3,Phases=1,LineCode=tieSwitch1,Length=0.001,Units=km,switch=T !numEQ 313494
new line.CTR868115 bus1=BMT163874384.1.2.3,bus2=BMT163874395.1.2.3,Phases=3,LineCode=tieSwitch,Length=0.001,Units=km,switch=T !numEQ 237540
new line.CTR890384 bus1=BMT163874745.1.2.3,bus2=BMT163875051.1.2.3,Phases=3,LineCode=tieSwitch,Length=0.001,Units=km,switch=T !numEQ 254294
new line.CTR890518 bus1=BMT164642378.1.2.3,bus2=BMT164812497.1.2.3,Phases=3,LineCode=tieSwitch,Length=0.001,Units=km,switch=T !numEQ 290093
new line.CTR890534 bus1=BMT163873535.1.2.3,bus2=BMT171787844.1.2.3,Phases=3,LineCode=tieSwitch,Length=0.001,Units=km,switch=T !numEQ 290094
new line.CTR905535 bus1=BMT168512390.1.2.3,bus2=BMT169202772.1.2.3,Phases=3,LineCode=tieSwitch,Length=0.001,Units=km,switch=T !numEQ 272859
new line.CTR94116 bus1=BMT163875265.1.2.3,bus2=BMT163875297.1.2.3,Phases=3,LineCode=tieSwitch,Length=0.001,Units=km,switch=T !numEQ 53921
new line.CTR94914 bus1=BMT163873688.1.2.3,bus2=BMT163873689.1.2.3,Phases=3,LineCode=tieSwitch,Length=0.001,Units=km,switch=T !numEQ 51949
new line.CTR94942 bus1=BMT163873697.1.2.3,bus2=BMT163873698.1.2.3,Phases=3,LineCode=tieSwitch,Length=0.001,Units=km,switch=T !numEQ 100300
new line.CTRR43065 bus1=BMT172658401.1.2.3,bus2=BMT172658498.1.2.3,Phases=3,LineCode=tieSwitch,Length=0.001,Units=km,switch=T !numEQ 320656
new line.CTRR43177 bus1=BMT172752132.1.2.3,bus2=BMT172752135.1.2.3,Phases=3,LineCode=tieSwitch,Length=0.001,Units=km,switch=T !numEQ 320653
new line.CTR124384 bus1=BMT163874747.1.2.3,bus2=BMT163874976.1.2.3,Phases=3,LineCode=tieSwitch,Length=0.001,Units=km,switch=T !numEQ 53923
new line.CTR169583 bus1=BMT163874715.1.2.3,bus2=BMT163874724.1.2.3,Phases=3,LineCode=tieSwitch,Length=0.001,Units=km,switch=T !numEQ 198442
new line.CTR21708 bus1=BMT163873958.1.2.3,bus2=BMT163873979.1.2.3,Phases=3,LineCode=tieSwitch,Length=0.001,Units=km,switch=T !numEQ 159802
new line.CTR537230 bus1=BMT163873623.3,bus2=BMT163874599.3,Phases=1,LineCode=tieSwitch1,Length=0.001,Units=km,switch=T !numEQ 51390
new line.CTR610947 bus1=BMT163873640.1.2.3,bus2=BMT163874540.1.2.3,Phases=3,LineCode=tieSwitch,Length=0.001,Units=km,switch=T !numEQ 74533
new line.CTR651547 bus1=BMT163874697.1.2.3,bus2=BMT163875086.1.2.3,Phases=3,LineCode=tieSwitch,Length=0.001,Units=km,switch=T !numEQ 53849
new line.CTR652625 bus1=BMT163873749.1.2.3,bus2=BMT163873750.1.2.3,Phases=3,LineCode=tieSwitch,Length=0.001,Units=km,switch=T !numEQ 126644
new line.CTR687135 bus1=BMT163874770.1.2.3,bus2=BMT163874952.1.2.3,Phases=3,LineCode=tieSwitch,Length=0.001,Units=km,switch=T !numEQ 163511
new line.CTR688360 bus1=BMT163875611.1.2.3,bus2=BMT163875632.1.2.3,Phases=3,LineCode=tieSwitch,Length=0.001,Units=km,switch=T !numEQ 198114
new line.CTR688605 bus1=BMT163875389.1.2.3,bus2=BMT163875419.1.2.3,Phases=3,LineCode=tieSwitch,Length=0.001,Units=km,switch=T !numEQ 198116
new line.CTR691167 bus1=BMT163874248.1.2.3,bus2=BMT165116840.1.2.3,Phases=3,LineCode=tieSwitch,Length=0.001,Units=km,switch=T !numEQ 162044
new line.CTR731333 bus1=BMT163874827.3,bus2=BMT163874921.3,Phases=1,LineCode=tieSwitch1,Length=0.001,Units=km,switch=T !numEQ 222003
new line.CTR733160 bus1=BMT163874997.1,bus2=BMT163874999.1,Phases=1,LineCode=tieSwitch1,Length=0.001,Units=km,switch=T !numEQ 222007
new line.CTR792541 bus1=BMT163874779.1.2.3,bus2=BMT163874927.1.2.3,Phases=3,LineCode=tieSwitch,Length=0.001,Units=km,switch=T !numEQ 297313
new line.CTR83476 bus1=BMT163874828.1.2.3,bus2=BMT164138840.1.2.3,Phases=3,LineCode=tieSwitch,Length=0.001,Units=km,switch=T !numEQ 50769
new line.CTR83504 bus1=BMT163873571.1.2.3,bus2=BMT163873582.1.2.3,Phases=3,LineCode=tieSwitch,Length=0.001,Units=km,switch=T !numEQ 50772
new line.CTR835766 bus1=BMT163875096.1,bus2=BMT163875099.1,Phases=1,LineCode=tieSwitch1,Length=0.001,Units=km,switch=T !numEQ 297169
new line.CTR83602 bus1=BMT163873705.1.2.3,bus2=BMT168847247.1.2.3,Phases=3,LineCode=tieSwitch,Length=0.001,Units=km,switch=T !numEQ 50781
new line.CTR837341 bus1=BMT163875505.1.2.3,bus2=BMT163875511.1.2.3,Phases=3,LineCode=tieSwitch,Length=0.001,Units=km,switch=T !numEQ 313159
new line.CTR83770 bus1=BMT163874409.1.2.3,bus2=BMT163874424.1.2.3,Phases=3,LineCode=tieSwitch,Length=0.001,Units=km,switch=T !numEQ 50828
new line.CTR83812 bus1=BMT163873905.1.2.3,bus2=BMT163874064.1.2.3,Phases=3,LineCode=tieSwitch,Length=0.001,Units=km,switch=T !numEQ 51114
new line.CTR83924 bus1=BMT163873855.1.2.3,bus2=BMT163873856.1.2.3,Phases=3,LineCode=tieSwitch,Length=0.001,Units=km,switch=T !numEQ 50883
new line.CTR855179 bus1=BMT163873869.2,bus2=BMT163874097.2,Phases=1,LineCode=tieSwitch1,Length=0.001,Units=km,switch=T !numEQ 377615
new line.CTR862045 bus1=BMT163874388.1.2.3,bus2=BMT163874397.1.2.3,Phases=3,LineCode=tieSwitch,Length=0.001,Units=km,switch=T !numEQ 233723
new line.CTR87263 bus1=BMT163873685.1.2.3,bus2=BMT163873686.1.2.3,Phases=3,LineCode=tieSwitch,Length=0.001,Units=km,switch=T !numEQ 51950
new line.CTR87277 bus1=BMT172752137.1.2.3,bus2=BMT163873675.1.2.3,Phases=3,LineCode=tieSwitch,Length=0.001,Units=km,switch=T !numEQ 51951
new line.CTR87291 bus1=BMT163873680.1.2.3,bus2=BMT173263851.1.2.3,Phases=3,LineCode=tieSwitch,Length=0.001,Units=km,switch=T !numEQ 51952
new line.CTR883140 bus1=BMT163873526.1.2.3,bus2=BMT164640625.1.2.3,Phases=3,LineCode=tieSwitch,Length=0.001,Units=km,switch=T !numEQ 237678
new line.CTR883143 bus1=BMT163873528.1.2.3,bus2=BMT164643215.1.2.3,Phases=3,LineCode=tieSwitch,Length=0.001,Units=km,switch=T !numEQ 237600
new line.CTR883366 bus1=BMT163875221.1.2.3,bus2=BMT163875225.1.2.3,Phases=3,LineCode=tieSwitch,Length=0.001,Units=km,switch=T !numEQ 253915
new line.CTR883562 bus1=BMT163873711.3,bus2=BMT163873733.3,Phases=1,LineCode=tieSwitch1,Length=0.001,Units=km,switch=T !numEQ 245329
new line.CTR907299 bus1=BMT169178420.1.2.3,bus2=BMT169179942.1.2.3,Phases=3,LineCode=tieSwitch,Length=0.001,Units=km,switch=T !numEQ 272347
new line.CTR907497 bus1=BMT169249148.1,bus2=BMT169312204.1,Phases=1,LineCode=tieSwitch1,Length=0.001,Units=km,switch=T !numEQ 269895
new line.CTRR43321 bus1=BMT163874200.1,bus2=BMT167222643.1,Phases=1,LineCode=tieSwitch1,Length=0.001,Units=km,switch=T !numEQ 313184
