2024_89_CemigReconfigurationCases/1_AlimsCemig/IIIU12/IIIU12Transformadores.dss
new transformer.1100416 Phases=1,Windings=3,Buses=[BMT163874955.2 BBT23435974.1.0 BBT23435974.0.2],Conns=[wye wye wye],kvs=[7.967 0.12 0.12],kvas=[5.000000000 5.000000000 5.000000000],Taps=[1,1.000000000,1.000000000],%loadloss=1.900000000,%noloadloss=0.600000000
new transformer.1100836 Phases=1,Windings=3,Buses=[BMT164061336.2 BBT23490595.1.0 BBT23490595.0.2],Conns=[wye wye wye],kvs=[7.967 0.12 0.12],kvas=[5.000000000 5.000000000 5.000000000],Taps=[1,1.000000000,1.000000000],%loadloss=1.900000000,%noloadloss=0.600000000
new transformer.1100899 Phases=1,Windings=3,Buses=[BMT167735525.2 BBT23512778.1.0 BBT23512778.0.2],Conns=[wye wye wye],kvs=[7.967 0.12 0.12],kvas=[5.000000000 5.000000000 5.000000000],Taps=[1,1.000000000,1.000000000],%loadloss=1.900000000,%noloadloss=0.600000000
new transformer.1101123 Phases=1,Windings=3,Buses=[BMT163874086.3 BBT23568309.1.0 BBT23568309.0.2],Conns=[wye wye wye],kvs=[7.967 0.12 0.12],kvas=[5.000000000 5.000000000 5.000000000],Taps=[1,1.000000000,1.000000000],%loadloss=1.900000000,%noloadloss=0.600000000
new transformer.1132063 Phases=3,Windings=2,Buses=[BMT163875657.1.2.3 BBT29789629.1.2.3.0],Conns=[delta wye],kvs=[13.8 0.22],kvas=[45.000000000 45.000000000],Taps=[1,1.000000000],%loadloss=1.522000000,%noloadloss=0.377777000
new transformer.1158208 Phases=1,Windings=3,Buses=[BMT163875159.1 BBT46514687.1.0 BBT46514687.0.2],Conns=[wye wye wye],kvs=[7.967 0.12 0.12],kvas=[5.000000000 5.000000000 5.000000000],Taps=[1,1.000000000,1.000000000],%loadloss=1.900000000,%noloadloss=0.600000000
new transformer.1204408 Phases=1,Windings=3,Buses=[BMT163874996.3 BBT43148100.1.0 BBT43148100.0.2],Conns=[wye wye wye],kvs=[7.967 0.12 0.12],kvas=[15.000000000 15.000000000 15.000000000],Taps=[1,1.000000000,1.000000000],%loadloss=1.600000000,%noloadloss=0.400000000
new transformer.1226367 Phases=3,Windings=2,Buses=[BMT165648118.1.2.3 BBT78053845.1.2.3.0],Conns=[delta wye],kvs=[13.8 0.22],kvas=[150.000000000 150.000000000],Taps=[1,1.000000000],%loadloss=1.127000000,%noloadloss=0.280000000
new transformer.1227025 Phases=1,Windings=3,Buses=[BMT163875528.1 BBT52927058.1.0 BBT52927058.0.2],Conns=[wye wye wye],kvs=[7.967 0.12 0.12],kvas=[5.000000000 5.000000000 5.000000000],Taps=[1,1.000000000,1.000000000],%loadloss=1.900000000,%noloadloss=0.600000000
new transformer.1227039 Phases=1,Windings=3,Buses=[BMT163875529.1 BBT52927177.1.0 BBT52927177.0.2],Conns=[wye wye wye],kvs=[7.967 0.12 0.12],kvas=[5.000000000 5.000000000 5.000000000],Taps=[1,1.000000000,1.000000000],%loadloss=1.900000000,%noloadloss=0.600000000
new transformer.1228978 Phases=1,Windings=3,Buses=[BMT163875013.1 BBT53199120.1.0 BBT53199120.0.2],Conns=[wye wye wye],kvs=[7.967 0.12 0.12],kvas=[5.000000000 5.000000000 5.000000000],Taps=[1,1.000000000,1.000000000],%loadloss=1.900000000,%noloadloss=0.600000000
new transformer.1306279 Phases=3,Windings=2,Buses=[BMT163874556.1.2.3 BBT83939263.1.2.3.0],Conns=[delta wye],kvs=[13.8 0.22],kvas=[75.000000000 75.000000000],Taps=[1,1.000000000],%loadloss=1.340000000,%noloadloss=0.340000000
new transformer.1328728 Phases=3,Windings=2,Buses=[BMT163875518.1.2.3 BBT97144014.1.2.3.0],Conns=[delta wye],kvs=[13.8 0.22],kvas=[75.000000000 75.000000000],Taps=[1,1.000000000],%loadloss=1.340000000,%noloadloss=0.340000000
new transformer.1328742 Phases=3,Windings=2,Buses=[BMT163875517.1.2.3 BBT97147395.1.2.3.0],Conns=[delta wye],kvs=[13.8 0.22],kvas=[75.000000000 75.000000000],Taps=[1,1.000000000],%loadloss=1.340000000,%noloadloss=0.340000000
new transformer.1352052 Phases=1,Windings=3,Buses=[BMT163873782.1 BBT117097682.1.0 BBT117097682.0.2],Conns=[wye wye wye],kvs=[7.967 0.12 0.12],kvas=[5.000000000 5.000000000 5.000000000],Taps=[1,1.000000000,1.000000000],%loadloss=1.900000000,%noloadloss=0.600000000
new transformer.1352374 Phases=3,Windings=2,Buses=[BMT167707739.1.2.3 BBT117316929.1.2.3.0],Conns=[delta wye],kvs=[13.8 0.22],kvas=[45.000000000 45.000000000],Taps=[1,1.000000000],%loadloss=1.522000000,%noloadloss=0.377777000
new transformer.1352717 Phases=3,Windings=2,Buses=[BMT163873745.1.2.3 BBT117632664.1.2.3.0],Conns=[delta wye],kvs=[13.8 0.22],kvas=[45.000000000 45.000000000],Taps=[1,1.000000000],%loadloss=1.522000000,%noloadloss=0.377777000
new transformer.1378946 Phases=3,Windings=2,Buses=[BMT163873756.1.2.3 BBT136696996.1.2.3.0],Conns=[delta wye],kvs=[13.8 0.22],kvas=[45.000000000 45.000000000],Taps=[1,1.000000000],%loadloss=1.522000000,%noloadloss=0.377777000
new transformer.1378974 Phases=3,Windings=2,Buses=[BMT163873759.1.2.3 BBT136718717.1.2.3.0],Conns=[delta wye],kvs=[13.8 0.22],kvas=[45.000000000 45.000000000],Taps=[1,1.000000000],%loadloss=1.522000000,%noloadloss=0.377777000
new transformer.1398601 Phases=1,Windings=3,Buses=[BMT165051512.3 BBT149986383.1.0 BBT149986383.0.2],Conns=[wye wye wye],kvs=[7.967 0.12 0.12],kvas=[10.000000000 10.000000000 10.000000000],Taps=[1,1.000000000,1.000000000],%loadloss=1.800000000,%noloadloss=0.450000000
new transformer.1414532 Phases=1,Windings=3,Buses=[BMT163875484.2 BBT153766489.1.0 BBT153766489.0.2],Conns=[wye wye wye],kvs=[7.967 0.12 0.12],kvas=[35.000000000 35.000000000 35.000000000],Taps=[1,1.000000000,1.000000000],%loadloss=1.293000000,%noloadloss=0.342857000
new transformer.1432999 Phases=3,Windings=2,Buses=[BMT163873908.1.2.3 BBT157799214.1.2.3.0],Conns=[delta wye],kvs=[13.8 0.22],kvas=[30.000000000 30.000000000],Taps=[1,1.000000000],%loadloss=1.667000000,%noloadloss=0.433333000
new transformer.1449701 Phases=3,Windings=2,Buses=[BMT171980015.1.2.3 BBT161578238.1.2.3.0],Conns=[delta wye],kvs=[13.8 0.22],kvas=[45.000000000 45.000000000],Taps=[1,1.000000000],%loadloss=1.522000000,%noloadloss=0.377777000
new transformer.1454824 Phases=3,Windings=2,Buses=[BMT167707740.1.2.3 BBT163028819.1.2.3.0],Conns=[delta wye],kvs=[13.8 0.22],kvas=[45.000000000 45.000000000],Taps=[1,1.000000000],%loadloss=1.522000000,%noloadloss=0.377777000
new transformer.1454862 Phases=3,Windings=2,Buses=[BMT163874303.1.2.3 BBT163036924.1.2.3.0],Conns=[delta wye],kvs=[13.8 0.22],kvas=[45.000000000 45.000000000],Taps=[1,1.000000000],%loadloss=1.522000000,%noloadloss=0.377777000
new transformer.1454868 Phases=3,Windings=2,Buses=[BMT163874304.1.2.3 BBT163038640.1.2.3.0],Conns=[delta wye],kvs=[13.8 0.22],kvas=[75.000000000 75.000000000],Taps=[1,1.000000000],%loadloss=1.340000000,%noloadloss=0.340000000
new transformer.1471712 Phases=1,Windings=3,Buses=[BMT170989668.2 BBT170957359.1.0 BBT170957359.0.2],Conns=[wye wye wye],kvs=[7.967 0.12 0.12],kvas=[10.000000000 10.000000000 10.000000000],Taps=[1,1.000000000,1.000000000],%loadloss=1.800000000,%noloadloss=0.450000000
new transformer.1471826 Phases=1,Windings=3,Buses=[BMT171607603.1 BBT166711678.1.0 BBT166711678.0.2],Conns=[wye wye wye],kvs=[7.967 0.12 0.12],kvas=[10.000000000 10.000000000 10.000000000],Taps=[1,1.000000000,1.000000000],%loadloss=1.800000000,%noloadloss=0.450000000
new transformer.1477372 Phases=1,Windings=3,Buses=[BMT168969900.2 BBT168900684.1.0 BBT168900684.0.2],Conns=[wye wye wye],kvs=[7.967 0.12 0.12],kvas=[10.000000000 10.000000000 10.000000000],Taps=[1,1.000000000,1.000000000],%loadloss=1.800000000,%noloadloss=0.450000000
new transformer.1110223 Phases=3,Windings=2,Buses=[BMT171945856.1.2.3 BBT25225027.1.2.3.0],Conns=[delta wye],kvs=[13.8 0.22],kvas=[30.000000000 30.000000000],Taps=[1,1.000000000],%loadloss=1.667000000,%noloadloss=0.433333000
new transformer.1110475 Phases=1,Windings=3,Buses=[BMT163874272.2 BBT25275798.1.0 BBT25275798.0.2],Conns=[wye wye wye],kvs=[7.967 0.12 0.12],kvas=[15.000000000 15.000000000 15.000000000],Taps=[1,1.000000000,1.000000000],%loadloss=1.600000000,%noloadloss=0.400000000
new transformer.1150886 Phases=1,Windings=3,Buses=[BMT163875637.2 BBT35142585.1.0 BBT35142585.0.2],Conns=[wye wye wye],kvs=[7.967 0.12 0.12],kvas=[5.000000000 5.000000000 5.000000000],Taps=[1,1.000000000,1.000000000],%loadloss=1.900000000,%noloadloss=0.600000000
new transformer.1150893 Phases=1,Windings=3,Buses=[BMT163875636.2 BBT35142732.1.0 BBT35142732.0.2],Conns=[wye wye wye],kvs=[7.967 0.12 0.12],kvas=[5.000000000 5.000000000 5.000000000],Taps=[1,1.000000000,1.000000000],%loadloss=1.900000000,%noloadloss=0.600000000
new transformer.1202448 Phases=1,Windings=3,Buses=[BMT163874517.3 BBT42543636.1.0 BBT42543636.0.2],Conns=[wye wye wye],kvs=[7.967 0.12 0.12],kvas=[5.000000000 5.000000000 5.000000000],Taps=[1,1.000000000,1.000000000],%loadloss=1.900000000,%noloadloss=0.600000000
new transformer.1202462 Phases=1,Windings=3,Buses=[BMT163874596.3 BBT42553555.1.0 BBT42553555.0.2],Conns=[wye wye wye],kvs=[7.967 0.12 0.12],kvas=[5.000000000 5.000000000 5.000000000],Taps=[1,1.000000000,1.000000000],%loadloss=1.900000000,%noloadloss=0.600000000
new transformer.1202917 Phases=1,Windings=3,Buses=[BMT171870908.2 BBT42706288.1.0 BBT42706288.0.2],Conns=[wye wye wye],kvs=[7.967 0.12 0.12],kvas=[5.000000000 5.000000000 5.000000000],Taps=[1,1.000000000,1.000000000],%loadloss=1.900000000,%noloadloss=0.600000000
new transformer.1203323 Phases=1,Windings=3,Buses=[BMT171218842.3 BBT42875702.1.0 BBT42875702.0.2],Conns=[wye wye wye],kvs=[7.967 0.12 0.12],kvas=[5.000000000 5.000000000 5.000000000],Taps=[1,1.000000000,1.000000000],%loadloss=1.900000000,%noloadloss=0.600000000
new transformer.1203400 Phases=1,Windings=3,Buses=[BMT163874191.1 BBT42911066.1.0 BBT42911066.0.2],Conns=[wye wye wye],kvs=[7.967 0.12 0.12],kvas=[5.000000000 5.000000000 5.000000000],Taps=[1,1.000000000,1.000000000],%loadloss=1.900000000,%noloadloss=0.600000000
new transformer.1230637 Phases=3,Windings=2,Buses=[BMT163875449.1.2.3 BBT51670194.1.2.3.0],Conns=[delta wye],kvs=[13.8 0.22],kvas=[75.000000000 75.000000000],Taps=[1,1.000000000],%loadloss=1.340000000,%noloadloss=0.340000000
new transformer.1308120 Phases=1,Windings=3,Buses=[BMT163874087.3 BBT86606592.1.0 BBT86606592.0.2],Conns=[wye wye wye],kvs=[7.967 0.12 0.12],kvas=[5.000000000 5.000000000 5.000000000],Taps=[1,1.000000000,1.000000000],%loadloss=1.900000000,%noloadloss=0.600000000
new transformer.1308638 Phases=1,Windings=3,Buses=[BMT163873977.1 BBT87302350.1.0 BBT87302350.0.2],Conns=[wye wye wye],kvs=[7.967 0.12 0.12],kvas=[5.000000000 5.000000000 5.000000000],Taps=[1,1.000000000,1.000000000],%loadloss=1.900000000,%noloadloss=0.600000000
new transformer.1309268 Phases=3,Windings=2,Buses=[BMT163874667.1.2.3 BBT88080792.1.2.3.0],Conns=[delta wye],kvs=[13.8 0.22],kvas=[75.000000000 75.000000000],Taps=[1,1.000000000],%loadloss=1.340000000,%noloadloss=0.340000000
new transformer.1333159 Phases=3,Windings=2,Buses=[BMT163873746.1.2.3 BBT104158980.1.2.3.0],Conns=[delta wye],kvs=[13.8 0.22],kvas=[30.000000000 30.000000000],Taps=[1,1.000000000],%loadloss=1.667000000,%noloadloss=0.433333000
new transformer.1333166 Phases=3,Windings=2,Buses=[BMT163873747.1.2.3 BBT104159176.1.2.3.0],Conns=[delta wye],kvs=[13.8 0.22],kvas=[30.000000000 30.000000000],Taps=[1,1.000000000],%loadloss=1.667000000,%noloadloss=0.433333000
new transformer.1333180 Phases=3,Windings=2,Buses=[BMT163873748.1.2.3 BBT104160555.1.2.3.0],Conns=[delta wye],kvs=[13.8 0.22],kvas=[30.000000000 30.000000000],Taps=[1,1.000000000],%loadloss=1.667000000,%noloadloss=0.433333000
new transformer.1358408 Phases=1,Windings=3,Buses=[BMT163874171.3 BBT122054158.1.0 BBT122054158.0.2],Conns=[wye wye wye],kvs=[7.967 0.12 0.12],kvas=[5.000000000 5.000000000 5.000000000],Taps=[1,1.000000000,1.000000000],%loadloss=1.900000000,%noloadloss=0.600000000
new transformer.1380969 Phases=1,Windings=3,Buses=[BMT163875163.1 BBT137181354.1.0 BBT137181354.0.2],Conns=[wye wye wye],kvs=[7.967 0.12 0.12],kvas=[5.000000000 5.000000000 5.000000000],Taps=[1,1.000000000,1.000000000],%loadloss=1.900000000,%noloadloss=0.600000000
new transformer.1381256 Phases=1,Windings=3,Buses=[BMT168969896.3 BBT137327206.1.0 BBT137327206.0.2],Conns=[wye wye wye],kvs=[7.967 0.12 0.12],kvas=[5.000000000 5.000000000 5.000000000],Taps=[1,1.000000000,1.000000000],%loadloss=1.900000000,%noloadloss=0.600000000
new transformer.1381515 Phases=1,Windings=3,Buses=[BMT163875100.1 BBT137373476.1.0 BBT137373476.0.2],Conns=[wye wye wye],kvs=[7.967 0.12 0.12],kvas=[15.000000000 15.000000000 15.000000000],Taps=[1,1.000000000,1.000000000],%loadloss=1.600000000,%noloadloss=0.400000000
new transformer.1435667 Phases=1,Windings=3,Buses=[BMT170989593.2 BBT158305705.1.0 BBT158305705.0.2],Conns=[wye wye wye],kvs=[7.967 0.12 0.12],kvas=[10.000000000 10.000000000 10.000000000],Taps=[1,1.000000000,1.000000000],%loadloss=1.800000000,%noloadloss=0.450000000
new transformer.1435859 Phases=1,Windings=3,Buses=[BMT163873978.1 BBT158338301.1.0 BBT158338301.0.2],Conns=[wye wye wye],kvs=[7.967 0.12 0.12],kvas=[10.000000000 10.000000000 10.000000000],Taps=[1,1.000000000,1.000000000],%loadloss=1.800000000,%noloadloss=0.450000000
new transformer.1435894 Phases=1,Windings=3,Buses=[BMT163874949.1 BBT158344723.1.0 BBT158344723.0.2],Conns=[wye wye wye],kvs=[7.967 0.12 0.12],kvas=[10.000000000 10.000000000 10.000000000],Taps=[1,1.000000000,1.000000000],%loadloss=1.800000000,%noloadloss=0.450000000
new transformer.1446983 Phases=1,Windings=3,Buses=[BMT163875584.1 BBT160977420.1.0 BBT160977420.0.2],Conns=[wye wye wye],kvs=[7.967 0.12 0.12],kvas=[10.000000000 10.000000000 10.000000000],Taps=[1,1.000000000,1.000000000],%loadloss=1.800000000,%noloadloss=0.450000000
new transformer.1447525 Phases=1,Windings=3,Buses=[BMT163875136.3 BBT161102170.1.0 BBT161102170.0.2],Conns=[wye wye wye],kvs=[7.967 0.12 0.12],kvas=[10.000000000 10.000000000 10.000000000],Taps=[1,1.000000000,1.000000000],%loadloss=1.800000000,%noloadloss=0.450000000
new transformer.1453991 Phases=1,Windings=3,Buses=[BMT165051511.3 BBT162778747.1.0 BBT162778747.0.2],Conns=[wye wye wye],kvs=[7.967 0.12 0.12],kvas=[10.000000000 10.000000000 10.000000000],Taps=[1,1.000000000,1.000000000],%loadloss=1.800000000,%noloadloss=0.450000000
new transformer.1476685 Phases=3,Windings=2,Buses=[BMT167547228.1.2.3 BBT167547229.1.2.3.0],Conns=[delta wye],kvs=[13.8 0.22],kvas=[75.000000000 75.000000000],Taps=[1,1.000000000],%loadloss=1.340000000,%noloadloss=0.340000000
new transformer.1476808 Phases=3,Windings=2,Buses=[BMT167568645.1.2.3 BBT167568646.1.2.3.0],Conns=[delta wye],kvs=[13.8 0.22],kvas=[30.000000000 30.000000000],Taps=[1,1.000000000],%loadloss=1.667000000,%noloadloss=0.433333000
new transformer.1477107 Phases=3,Windings=2,Buses=[BMT167619798.1.2.3 BBT167619551.1.2.3.0],Conns=[delta wye],kvs=[13.8 0.22],kvas=[75.000000000 75.000000000],Taps=[1,1.000000000],%loadloss=1.340000000,%noloadloss=0.340000000
new transformer.1101606 Phases=1,Windings=3,Buses=[BMT163874142.2 BBT23698705.1.0 BBT23698705.0.2],Conns=[wye wye wye],kvs=[7.967 0.12 0.12],kvas=[5.000000000 5.000000000 5.000000000],Taps=[1,1.000000000,1.000000000],%loadloss=1.900000000,%noloadloss=0.600000000
new transformer.1101704 Phases=1,Windings=3,Buses=[BMT163874075.2 BBT23712005.1.0 BBT23712005.0.2],Conns=[wye wye wye],kvs=[7.967 0.12 0.12],kvas=[5.000000000 5.000000000 5.000000000],Taps=[1,1.000000000,1.000000000],%loadloss=1.900000000,%noloadloss=0.600000000
new transformer.1101830 Phases=1,Windings=3,Buses=[BMT166137068.2 BBT23752570.1.0 BBT23752570.0.2],Conns=[wye wye wye],kvs=[7.967 0.12 0.12],kvas=[5.000000000 5.000000000 5.000000000],Taps=[1,1.000000000,1.000000000],%loadloss=1.900000000,%noloadloss=0.600000000
new transformer.1101837 Phases=1,Windings=3,Buses=[BMT166137070.2 BBT23753641.1.0 BBT23753641.0.2],Conns=[wye wye wye],kvs=[7.967 0.12 0.12],kvas=[5.000000000 5.000000000 5.000000000],Taps=[1,1.000000000,1.000000000],%loadloss=1.900000000,%noloadloss=0.600000000
new transformer.1102089 Phases=1,Windings=3,Buses=[BMT163873854.2 BBT23807373.1.0 BBT23807373.0.2],Conns=[wye wye wye],kvs=[7.967 0.12 0.12],kvas=[5.000000000 5.000000000 5.000000000],Taps=[1,1.000000000,1.000000000],%loadloss=1.900000000,%noloadloss=0.600000000
new transformer.1220011 Phases=1,Windings=3,Buses=[BMT163875300.1 BBT52825173.1.0 BBT52825173.0.2],Conns=[wye wye wye],kvs=[7.967 0.12 0.12],kvas=[5.000000000 5.000000000 5.000000000],Taps=[1,1.000000000,1.000000000],%loadloss=1.900000000,%noloadloss=0.600000000
new transformer.1247283 Phases=1,Windings=3,Buses=[BMT163875443.2 BBT61288740.1.0 BBT61288740.0.2],Conns=[wye wye wye],kvs=[7.967 0.12 0.12],kvas=[5.000000000 5.000000000 5.000000000],Taps=[1,1.000000000,1.000000000],%loadloss=1.900000000,%noloadloss=0.600000000
new transformer.1247304 Phases=1,Windings=3,Buses=[BMT163875638.2 BBT61253698.1.0 BBT61253698.0.2],Conns=[wye wye wye],kvs=[7.967 0.12 0.12],kvas=[5.000000000 5.000000000 5.000000000],Taps=[1,1.000000000,1.000000000],%loadloss=1.900000000,%noloadloss=0.600000000
new transformer.1248039 Phases=1,Windings=3,Buses=[BMT168512382.2 BBT61268979.1.0 BBT61268979.0.2],Conns=[wye wye wye],kvs=[7.967 0.12 0.12],kvas=[5.000000000 5.000000000 5.000000000],Taps=[1,1.000000000,1.000000000],%loadloss=1.900000000,%noloadloss=0.600000000
new transformer.1303199 Phases=1,Windings=3,Buses=[BMT163875530.1 BBT81226959.1.0 BBT81226959.0.2],Conns=[wye wye wye],kvs=[7.967 0.12 0.12],kvas=[10.000000000 10.000000000 10.000000000],Taps=[1,1.000000000,1.000000000],%loadloss=1.800000000,%noloadloss=0.450000000
new transformer.1332676 Phases=1,Windings=3,Buses=[BMT163875592.3 BBT103994508.1.0 BBT103994508.0.2],Conns=[wye wye wye],kvs=[7.967 0.12 0.12],kvas=[5.000000000 5.000000000 5.000000000],Taps=[1,1.000000000,1.000000000],%loadloss=1.900000000,%noloadloss=0.600000000
new transformer.1356959 Phases=1,Windings=3,Buses=[BMT163874915.2 BBT120773508.1.0 BBT120773508.0.2],Conns=[wye wye wye],kvs=[7.967 0.12 0.12],kvas=[5.000000000 5.000000000 5.000000000],Taps=[1,1.000000000,1.000000000],%loadloss=1.900000000,%noloadloss=0.600000000
new transformer.1384364 Phases=3,Windings=2,Buses=[BMT163874440.1.2.3 BBT138124884.1.2.3.0],Conns=[delta wye],kvs=[13.8 0.22],kvas=[75.000000000 75.000000000],Taps=[1,1.000000000],%loadloss=1.340000000,%noloadloss=0.340000000
new transformer.1385421 Phases=1,Windings=3,Buses=[BMT164138845.3 BBT138409070.1.0 BBT138409070.0.2],Conns=[wye wye wye],kvs=[7.967 0.12 0.12],kvas=[15.000000000 15.000000000 15.000000000],Taps=[1,1.000000000,1.000000000],%loadloss=1.600000000,%noloadloss=0.400000000
new transformer.1386464 Phases=1,Windings=3,Buses=[BMT163874920.3 BBT138741073.1.0 BBT138741073.0.2],Conns=[wye wye wye],kvs=[7.967 0.12 0.12],kvas=[5.000000000 5.000000000 5.000000000],Taps=[1,1.000000000,1.000000000],%loadloss=1.900000000,%noloadloss=0.600000000
new transformer.1394737 Phases=1,Windings=3,Buses=[BMT163874916.2 BBT149145860.1.0 BBT149145860.0.2],Conns=[wye wye wye],kvs=[7.967 0.12 0.12],kvas=[10.000000000 10.000000000 10.000000000],Taps=[1,1.000000000,1.000000000],%loadloss=1.800000000,%noloadloss=0.450000000
new transformer.1412465 Phases=3,Windings=2,Buses=[BMT163874400.1.2.3 BBT153307908.1.2.3.0],Conns=[delta wye],kvs=[13.8 0.22],kvas=[45.000000000 45.000000000],Taps=[1,1.000000000],%loadloss=1.522000000,%noloadloss=0.377777000
new transformer.1412466 Phases=3,Windings=2,Buses=[BMT163874399.1.2.3 BBT153307945.1.2.3.0],Conns=[delta wye],kvs=[13.8 0.22],kvas=[45.000000000 45.000000000],Taps=[1,1.000000000],%loadloss=1.522000000,%noloadloss=0.377777000
new transformer.1418736 Phases=3,Windings=2,Buses=[BMT163873771.1.2.3 BBT154780651.1.2.3.0],Conns=[delta wye],kvs=[13.8 0.22],kvas=[30.000000000 30.000000000],Taps=[1,1.000000000],%loadloss=1.667000000,%noloadloss=0.433333000
new transformer.1436102 Phases=1,Windings=3,Buses=[BMT163873774.1 BBT158381227.1.0 BBT158381227.0.2],Conns=[wye wye wye],kvs=[7.967 0.12 0.12],kvas=[10.000000000 10.000000000 10.000000000],Taps=[1,1.000000000,1.000000000],%loadloss=1.800000000,%noloadloss=0.450000000
new transformer.1436712 Phases=1,Windings=3,Buses=[BMT164138852.1 BBT158500827.1.0 BBT158500827.0.2],Conns=[wye wye wye],kvs=[7.967 0.12 0.12],kvas=[10.000000000 10.000000000 10.000000000],Taps=[1,1.000000000,1.000000000],%loadloss=1.800000000,%noloadloss=0.450000000
new transformer.1442299 Phases=1,Windings=3,Buses=[BMT170688025.1 BBT159639936.1.0 BBT159639936.0.2],Conns=[wye wye wye],kvs=[7.967 0.12 0.12],kvas=[10.000000000 10.000000000 10.000000000],Taps=[1,1.000000000,1.000000000],%loadloss=1.800000000,%noloadloss=0.450000000
new transformer.1447591 Phases=1,Windings=3,Buses=[BMT170081015.3 BBT161114424.1.0 BBT161114424.0.2],Conns=[wye wye wye],kvs=[7.967 0.12 0.12],kvas=[10.000000000 10.000000000 10.000000000],Taps=[1,1.000000000,1.000000000],%loadloss=1.800000000,%noloadloss=0.450000000
new transformer.1458955 Phases=1,Windings=3,Buses=[BMT164128016.2 BBT164127987.1.0 BBT164127987.0.2],Conns=[wye wye wye],kvs=[7.967 0.12 0.12],kvas=[10.000000000 10.000000000 10.000000000],Taps=[1,1.000000000,1.000000000],%loadloss=1.800000000,%noloadloss=0.450000000
new transformer.1459014 Phases=1,Windings=3,Buses=[BMT164138855.1 BBT164138608.1.0 BBT164138608.0.2],Conns=[wye wye wye],kvs=[7.967 0.12 0.12],kvas=[10.000000000 10.000000000 10.000000000],Taps=[1,1.000000000,1.000000000],%loadloss=1.800000000,%noloadloss=0.450000000
new transformer.1481428 Phases=1,Windings=3,Buses=[BMT170001680.3 BBT168387470.1.0 BBT168387470.0.2],Conns=[wye wye wye],kvs=[7.967 0.12 0.12],kvas=[10.000000000 10.000000000 10.000000000],Taps=[1,1.000000000,1.000000000],%loadloss=1.800000000,%noloadloss=0.450000000
new transformer.1492715 Phases=3,Windings=2,Buses=[BMT172827516.1.2.3 BBT170508855.1.2.3.0],Conns=[delta wye],kvs=[13.8 0.22],kvas=[75.000000000 75.000000000],Taps=[1,1.000000000],%loadloss=1.340000000,%noloadloss=0.340000000
new transformer.1497306 Phases=3,Windings=2,Buses=[BMT171455664.1.2.3 BBT171455665.1.2.3.0],Conns=[delta wye],kvs=[13.8 0.22],kvas=[45.000000000 45.000000000],Taps=[1,1.000000000],%loadloss=1.522000000,%noloadloss=0.377777000
new transformer.1503202 Phases=1,Windings=3,Buses=[BMT172658400.2 BBT172658385.1.0 BBT172658385.0.2],Conns=[wye wye wye],kvs=[7.967 0.12 0.12],kvas=[5.000000000 5.000000000 5.000000000],Taps=[1,1.000000000,1.000000000],%loadloss=1.900000000,%noloadloss=0.600000000
new transformer.1093374 Phases=1,Windings=3,Buses=[BMT172329669.2 BBT21647579.1.0 BBT21647579.0.2],Conns=[wye wye wye],kvs=[7.967 0.12 0.12],kvas=[5.000000000 5.000000000 5.000000000],Taps=[1,1.000000000,1.000000000],%loadloss=1.900000000,%noloadloss=0.600000000
new transformer.1121325 Phases=3,Windings=2,Buses=[BMT172171180.1.2.3 BBT27388706.1.2.3.0],Conns=[delta wye],kvs=[13.8 0.22],kvas=[75.000000000 75.000000000],Taps=[1,1.000000000],%loadloss=1.340000000,%noloadloss=0.340000000
new transformer.1215048 Phases=1,Windings=3,Buses=[BMT164200653.2 BBT46448362.1.0 BBT46448362.0.2],Conns=[wye wye wye],kvs=[7.967 0.12 0.12],kvas=[5.000000000 5.000000000 5.000000000],Taps=[1,1.000000000,1.000000000],%loadloss=1.900000000,%noloadloss=0.600000000
new transformer.1215188 Phases=1,Windings=3,Buses=[BMT163875321.3 BBT46491125.1.0 BBT46491125.0.2],Conns=[wye wye wye],kvs=[7.967 0.12 0.12],kvas=[5.000000000 5.000000000 5.000000000],Taps=[1,1.000000000,1.000000000],%loadloss=1.900000000,%noloadloss=0.600000000
new transformer.1215202 Phases=1,Windings=3,Buses=[BMT163874195.2 BBT46506917.1.0 BBT46506917.0.2],Conns=[wye wye wye],kvs=[7.967 0.12 0.12],kvas=[5.000000000 5.000000000 5.000000000],Taps=[1,1.000000000,1.000000000],%loadloss=1.900000000,%noloadloss=0.600000000
new transformer.1316184 Phases=1,Windings=3,Buses=[BMT163873776.1 BBT91638073.1.0 BBT91638073.0.2],Conns=[wye wye wye],kvs=[7.967 0.12 0.12],kvas=[5.000000000 5.000000000 5.000000000],Taps=[1,1.000000000,1.000000000],%loadloss=1.900000000,%noloadloss=0.600000000
new transformer.1343883 Phases=1,Windings=3,Buses=[BMT163874903.3 BBT111067490.1.0 BBT111067490.0.2],Conns=[wye wye wye],kvs=[7.967 0.12 0.12],kvas=[10.000000000 10.000000000 10.000000000],Taps=[1,1.000000000,1.000000000],%loadloss=1.800000000,%noloadloss=0.450000000
...