2024_89_CemigReconfigurationCases/1_AlimsCemig/IIIU12/IIIU12SegmentosBT.dss
new line.11267922 bus1=BBT2733363.1.2.0,bus2=BBT2733370.1.2.0,Phases=2,Linecode=BT316_BT316_7_2_1,Length=0.000500000,Units=km
new line.11268293 bus1=BBT2733377.1.2.0,bus2=BBT2733384.1.2.0,Phases=2,Linecode=BT518_BT518_7_2_1,Length=0.000500000,Units=km
new line.11268300 bus1=BBT2733384.1.2.0,bus2=BBT2733391.1.2.0,Phases=2,Linecode=BT808_BT808_4_2_3,Length=0.036047000,Units=km
new line.11268356 bus1=BBT2733391.1.2.0,bus2=BBT2733398.1.2.0,Phases=2,Linecode=BT808_BT808_4_2_3,Length=0.035120000,Units=km
new line.11268720 bus1=BBT2733405.1.2.0,bus2=BBT2733412.1.2.0,Phases=2,Linecode=BT816_BT816_4_2_2,Length=0.030059000,Units=km
new line.11269343 bus1=BBT2733510.1.2.0,bus2=BBT2733517.1.2.0,Phases=2,Linecode=BT808_BT808_4_2_3,Length=0.044137000,Units=km
new line.11269364 bus1=BBT2733517.1.2.0,bus2=BBT2733524.1.2.0,Phases=2,Linecode=BT808_BT808_4_2_3,Length=0.040015000,Units=km
new line.11269434 bus1=BBT2733524.1.2.0,bus2=BBT2733531.1.2.0,Phases=2,Linecode=BT808_BT808_4_2_3,Length=0.040015000,Units=km
new line.11269770 bus1=BBT2733601.1.2.0,bus2=BBT2733608.1.2.0,Phases=2,Linecode=BT316_BT316_7_2_1,Length=0.000500000,Units=km
new line.11269931 bus1=BBT2733741.1.2.0,bus2=BBT2733748.1.2.0,Phases=2,Linecode=BT518_BT518_7_2_1,Length=0.000500000,Units=km
new line.11269938 bus1=BBT2733748.1.2.0,bus2=BBT2733755.1.2.0,Phases=2,Linecode=BT808_BT808_4_2_3,Length=0.025489000,Units=km
new line.11269980 bus1=BBT2733755.1.2.0,bus2=BBT2733762.1.2.0,Phases=2,Linecode=BT808_BT808_4_2_3,Length=0.051650000,Units=km
new line.11269987 bus1=BBT2733762.1.2.0,bus2=BBT2733769.1.2.0,Phases=2,Linecode=BT808_BT808_4_2_3,Length=0.050919000,Units=km
new line.11270015 bus1=BBT2733769.1.2.0,bus2=BBT2733776.1.2.0,Phases=2,Linecode=BT808_BT808_4_2_3,Length=0.060127000,Units=km
new line.12050606 bus1=BBT2873356.1.2.0,bus2=BBT2873363.1.2.0,Phases=2,Linecode=BT316_BT316_7_2_1,Length=0.000500000,Units=km
new line.12051992 bus1=BBT2873517.1.2.0,bus2=BBT2873524.1.2.0,Phases=2,Linecode=BT316_BT316_7_2_1,Length=0.000500000,Units=km
new line.12052342 bus1=BBT2873531.1.2.0,bus2=BBT2873538.1.2.0,Phases=2,Linecode=BT316_BT316_7_2_1,Length=0.000500000,Units=km
new line.12052363 bus1=BBT2873545.1.2.0,bus2=BBT2873552.1.2.0,Phases=2,Linecode=BT316_BT316_7_2_1,Length=0.000500000,Units=km
new line.12052405 bus1=BBT2873573.1.2.3.0,bus2=BBT2873580.1.2.3.0,Phases=3,Linecode=BT518_BT518_7_3_1,Length=0.000500000,Units=km
new line.12052482 bus1=BBT2873559.1.2.0,bus2=BBT2873566.1.2.0,Phases=2,Linecode=BT316_BT316_7_2_1,Length=0.000500000,Units=km
new line.12052531 bus1=BBT2873587.1.2.0,bus2=BBT2873594.1.2.0,Phases=2,Linecode=BT316_BT316_7_2_1,Length=0.000500000,Units=km
new line.12052559 bus1=BBT2873601.1.2.0,bus2=BBT2873608.1.2.0,Phases=2,Linecode=BT316_BT316_7_2_1,Length=0.000500000,Units=km
new line.12052643 bus1=BBT2873643.1.2.0,bus2=BBT2873650.1.2.0,Phases=2,Linecode=BT316_BT316_7_2_1,Length=0.000500000,Units=km
new line.12052727 bus1=BBT2873874.1.2.0,bus2=BBT2873881.1.2.0,Phases=2,Linecode=BT316_BT316_7_2_1,Length=0.000500000,Units=km
new line.12054547 bus1=BBT2873860.1.2.0,bus2=BBT2873867.1.2.0,Phases=2,Linecode=BT316_BT316_7_2_1,Length=0.000500000,Units=km
new line.12055289 bus1=BBT2874021.1.2.0,bus2=BBT2874028.1.2.0,Phases=2,Linecode=BT521_BT521_7_2_1,Length=0.000500000,Units=km
new line.12056451 bus1=BBT2874035.1.2.0,bus2=BBT2874042.1.2.0,Phases=2,Linecode=BT518_BT518_7_2_1,Length=0.000500000,Units=km
new line.12056990 bus1=BBT2874077.1.2.0,bus2=BBT2874084.1.2.0,Phases=2,Linecode=BT316_BT316_7_2_1,Length=0.000500000,Units=km
new line.12057809 bus1=BBT2874091.1.2.0,bus2=BBT2874098.1.2.0,Phases=2,Linecode=BT316_BT316_7_2_1,Length=0.000500000,Units=km
new line.12058474 bus1=BBT2874483.1.2.0,bus2=BBT2874490.1.2.0,Phases=2,Linecode=BT316_BT316_7_2_1,Length=0.000500000,Units=km
new line.12058495 bus1=BBT2874399.1.2.0,bus2=BBT2874406.1.2.0,Phases=2,Linecode=BT316_BT316_7_2_1,Length=0.000500000,Units=km
new line.12059615 bus1=BBT2874497.1.2.0,bus2=BBT2874504.1.2.0,Phases=2,Linecode=BT316_BT316_7_2_1,Length=0.000500000,Units=km
new line.12059741 bus1=BBT2874560.1.2.0,bus2=BBT2874567.1.2.0,Phases=2,Linecode=BT316_BT316_7_2_1,Length=0.000500000,Units=km
new line.12059937 bus1=BBT2874581.1.2.0,bus2=BBT2874588.1.2.0,Phases=2,Linecode=BT316_BT316_7_2_1,Length=0.000500000,Units=km
new line.13183689 bus1=BBT3381472.1.2.0,bus2=BBT3381479.1.2.0,Phases=2,Linecode=BT518_BT518_7_2_1,Length=0.000500000,Units=km
new line.13183703 bus1=BBT3381479.1.2.0,bus2=BBT3381486.1.2.0,Phases=2,Linecode=BT808_BT808_4_2_3,Length=0.040300000,Units=km
new line.13183843 bus1=BBT3381458.1.2.0,bus2=BBT3381465.1.2.0,Phases=2,Linecode=BT316_BT316_7_2_1,Length=0.000500000,Units=km
new line.13183878 bus1=BBT3381486.1.2.0,bus2=BBT3381493.1.2.0,Phases=2,Linecode=BT808_BT808_4_2_3,Length=0.031756000,Units=km
new line.13183941 bus1=BBT3381500.1.2.0,bus2=BBT3381507.1.2.0,Phases=2,Linecode=BT316_BT316_7_2_1,Length=0.000500000,Units=km
...